583
Lx= 20.726885, Ly= 20.726885, Lz= 20.726885
N  6.995050 6.525124 6.525466
N  2.891266 1.753273 16.803665
N  9.132509 13.043859 10.556608
N  2.374932 7.500504 19.916869
N  5.407663 13.775263 5.460770
N  14.692161 12.054578 13.946347
N  2.288074 13.064833 3.184627
N  19.340878 2.910757 19.498618
N  9.748004 6.993000 9.279002
N  1.921185 20.463495 8.510503
N  6.661159 0.015902 10.999728
N  5.939020 14.638478 3.516892
N  19.480003 3.784498 18.397717
N  4.768714 7.769570 0.671241
N  18.176225 10.775210 7.940618
N  1.918088 19.956558 6.253781
N  6.770571 7.228045 17.480983
N  10.805095 12.965350 5.121844
N  7.174496 13.239299 5.432098
N  19.031781 20.068296 20.304270
N  11.248577 6.931912 0.399782
N  5.245660 8.097727 4.202620
N  1.073857 19.990006 5.203477
N  1.425719 0.041005 13.015400
N  9.882779 13.638856 11.044524
N  6.194814 9.280466 20.169556
N  19.197132 15.754138 3.502320
N  6.624228 3.662964 14.688681
N  14.120053 17.822707 0.402071
N  10.350537 6.654147 15.321406
N  3.893107 10.929261 17.245716
N  7.486130 13.497839 3.181571
N  8.707325 6.627072 3.234713
N  4.756462 14.023809 2.875691
N  11.099368 13.330796 1.845670
N  2.938639 18.348483 20.630833
N  7.449063 15.687507 0.069095
N  2.138915 16.805184 15.175595
N  18.146447 6.196962 4.203182
N  7.337096 7.054331 7.347703
N  9.135563 2.306702 16.692695
N  4.887543 10.430571 20.369616
N  19.560892 3.159460 6.621694
N  1.287218 7.360634 1.008328
N  0.675481 14.692897 10.668172
N  4.808601 9.446066 0.116053
N  7.031244 12.677280 3.652717
N  17.250337 15.860466 9.090700
N  19.739141 2.361427 4.586172
N  4.867171 4.342662 19.729012
N  6.473912 8.035213 16.896486
N  6.870301 4.611867 2.712918
N  16.996229 15.602648 15.719864
N  10.744588 8.733489 7.299132
N  5.658838 1.855610 15.773325
N  5.248259 9.031682 16.572181
N  5.761179 10.230767 19.904504
N  15.251964 1.534242 18.048482
N  0.238864 6.034712 15.368766
N  18.543140 7.092204 3.872317
N  7.989284 8.084324 5.783580
N  17.381548 15.089115 14.882331
N  9.452755 13.118004 15.278096
N  16.548680 11.877994 5.482589
N  7.061245 7.697719 3.987821
N  1.128503 5.087370 1.654738
N  3.239546 10.293423 7.850029
N  18.590193 20.006983 1.523706
N  1.391249 19.086825 13.745654
N  6.765387 9.600117 17.891053
N  5.824584 14.249472 19.778494
N  6.651646 9.236595 15.002265
N  7.686811 19.569673 3.431034
N  8.958886 10.471186 7.881205
N  7.098993 16.877602 12.309299
N  4.005556 9.637598 14.335031
N  7.704646 19.845367 2.428727
N  14.742440 18.699128 15.168959
N  2.395946 7.813165 18.940901
N  4.494778 3.714484 17.919830
N  15.670735 17.787198 17.931968
N  5.122347 7.468818 18.479464
N  7.088270 8.460831 0.931361
N  4.811882 5.964297 1.596211
N  9.056261 11.299170 2.594976
N  12.025562 15.777286 1.269378
N  10.644334 6.724522 8.533866
N  5.438982 9.062179 9.548247
N  7.738025 12.067487 4.135217
N  2.503626 20.494546 2.243690
N  7.366647 14.848029 6.063496
N  2.113422 2.219801 5.663336
N  20.517659 4.083919 18.530844
N  4.631252 6.846212 1.122391
N  3.144574 13.583835 3.543705
N  3.842347 18.278628 15.320347
N  0.786857 0.043339 19.015776
N  14.887383 11.487080 3.984234
N  3.867023 9.064567 13.485704
N  8.099889 7.096545 2.539232
N  15.349390 4.147830 14.383538
N  9.708524 8.315810 4.903595
N  4.450741 18.420835 0.511862
N  0.200716 20.586915 5.223369
N  5.903948 17.291150 17.424812
N  3.755295 6.425041 13.848368
N  4.286996 1.946730 0.912781
N  20.401988 14.579488 10.902069
N  6.933636 0.929268 10.696042
N  18.929841 12.068959 15.638894
N  18.957514 3.562562 13.577667
N  18.956771 4.720148 3.973289
N  5.188631 1.669089 3.003407
N  1.267707 2.050019 19.701537
N  0.827748 10.080166 4.223441
N  18.366168 1.740662 0.957501
N  5.212872 3.444472 5.796225
N  10.041231 2.652485 16.189769
N  18.560288 0.947088 0.358240
N  7.633096 7.792746 18.834781
N  4.681123 2.556846 19.422198
N  6.118333 12.991408 3.922879
N  4.480555 6.802345 2.155556
N  6.883112 16.920049 17.179422
N  2.841597 0.769147 2.403888
N  2.475469 0.611063 14.052034
N  11.194133 1.836286 1.530409
N  8.749233 5.990429 7.896328
N  8.544743 5.054346 8.383087
N  3.056279 0.043866 10.913867
N  11.455576 12.975328 8.667709
N  1.547514 9.816885 13.819462
N  15.780259 17.052028 11.701269
N  8.281792 6.710725 7.335426
N  1.789704 5.321262 3.311786
N  7.427427 14.932383 4.306414
N  7.159677 2.271785 18.052496
N  8.969616 7.867621 5.568344
N  18.821152 3.575834 5.973976
N  6.074220 4.570864 16.041950
N  0.640237 2.384198 0.964823
N  12.517936 8.759402 6.766379
N  13.588504 19.847067 11.437484
N  0.305954 2.685438 5.346893
N  14.134987 18.904159 7.768599
N  1.778965 8.913644 17.222767
N  15.553446 14.643834 4.494799
N  4.004208 16.091700 4.995020
N  1.232134 5.745805 2.414192
N  2.812087 15.991610 15.182750
N  0.406455 3.193606 18.632578
N  16.612579 4.112950 7.783865
N  2.174607 18.844654 20.204114
N  6.952210 3.835537 1.999156
N  8.784381 9.507581 7.382874
N  10.161653 8.892685 6.490561
N  7.574119 9.792016 18.497814
N  11.606569 4.124781 14.171135
N  2.538865 6.719110 0.690609
N  19.012360 3.156483 0.559418
N  2.188598 18.183967 2.200240
N  14.337875 19.570922 12.125907
N  6.881747 13.889345 6.248873
N  2.823913 14.831261 4.775175
N  13.229230 2.423830 4.405127
N  11.937661 20.482238 0.272507
N  0.898828 1.054803 18.154584
N  0.195723 5.800759 5.666513
N  3.195732 2.563812 3.188558
N  1.741917 6.670675 19.961776
N  5.353958 10.667386 15.025960
N  12.670053 19.083943 6.812105
N  10.347948 18.526976 11.262362
N  3.374909 7.723644 4.104059
N  19.876798 12.835087 20.013084
N  9.030822 8.072299 7.880897
N  15.036247 8.740571 17.507556
N  3.241455 13.343329 18.062811
N  1.713308 3.649510 20.616731
N  11.237551 5.033997 14.397666
N  6.738059 10.733416 16.034072
N  0.667767 4.941849 5.978819
N  12.501636 19.357544 0.890815
N  1.526633 2.091715 1.375102
N  9.765623 10.973760 6.216569
N  20.663089 1.370662 19.482982
N  5.215082 8.396697 14.427266
N  18.842930 20.502731 16.748327
N  18.569833 8.139847 3.579810
N  3.748033 2.821141 0.602113
N  5.166135 4.644847 16.552809
N  1.844556 0.530618 2.506890
N  0.356981 6.673901 17.485403
N  1.927206 7.201352 11.866328
N  0.890216 7.521195 17.887871
N  11.830517 5.505585 8.022593
N  7.809370 9.137025 7.202282
N  8.282709 20.412552 3.058044
N  8.592214 5.279393 6.750316
N  5.450056 8.298219 19.030068
N  9.951077 11.993555 3.641741
N  2.881749 17.664304 2.772907
N  10.253479 10.464548 5.474095
N  4.636144 6.970242 13.975193
N  6.043539 3.756443 2.528927
N  10.849116 13.634833 8.104155
N  2.439699 20.716473 13.259808
N  2.919321 19.751811 10.147122
N  3.553111 10.856781 0.677337
N  18.466844 11.214615 7.069628
N  4.863261 4.046834 14.716190
N  3.945789 13.110975 9.635525
N  1.105495 7.264964 4.521575
N  6.093991 7.686520 20.447624
N  15.236958 2.414158 15.120905
N  0.729303 14.072354 2.374100
N  6.666151 9.734561 4.716968
N  2.327458 9.926028 19.596079
N  11.523169 0.072223 15.868217
N  17.185655 6.736013 18.438407
N  1.527992 0.334203 17.778844
N  12.454386 6.998699 8.096985
N  3.892804 5.538768 14.435024
N  1.694075 9.150478 3.221105
N  6.528685 8.668227 5.341470
N  10.833070 17.741814 20.158095
N  2.318999 3.011370 2.596625
N  1.569168 8.269017 5.459085
N  8.002064 5.692528 10.565589
N  18.770157 5.679508 3.616024
N  4.078603 9.316324 4.198717
N  2.563533 12.775549 4.124778
N  18.441722 10.020584 3.398827
N  4.577286 0.820523 16.518740
N  6.351494 9.775430 2.937260
N  9.748045 7.691485 6.645616
N  6.283368 14.698150 6.097965
N  16.356187 18.638476 15.089419
N  12.071091 19.519978 16.529698
N  4.295149 7.993899 14.809996
N  4.066504 9.891218 16.145703
N  1.937703 0.612921 5.005473
N  20.526711 10.855364 15.927606
N  1.108722 5.209320 19.287634
N  11.442935 15.388576 18.499274
N  2.912519 14.699455 10.297169
N  7.485394 18.084860 6.432708
N  18.405364 15.565492 4.123628
N  14.518867 8.249086 8.297816
N  2.230807 9.402305 13.170407
N  6.459151 12.361521 10.938749
N  3.403450 14.664133 16.759024
N  9.957044 11.265103 2.063536
N  0.875530 19.619235 6.212512
N  2.000783 3.698792 19.300663
N  4.420731 0.909530 15.507211
N  8.142082 20.444267 12.198979
N  11.940757 8.280979 10.287611
N  5.809078 4.938555 18.311334
N  12.734684 16.562433 1.424653
N  18.093302 19.892652 3.625825
N  0.757811 8.367969 6.177410
N  2.654688 16.574181 13.626119
N  0.992106 20.210822 3.547421
N  10.426044 6.261481 0.554692
N  9.434483 13.216933 17.713022
N  3.537624 8.487021 14.351905
N  1.344076 15.873175 6.030132
N  2.484187 9.401449 17.752407
N  4.515369 4.267744 20.680078
N  0.058075 10.741305 13.818080
N  10.712793 11.078984 9.857136
N  3.496003 11.244613 8.028644
N  19.940100 6.349451 5.429100
N  11.085223 19.841099 16.023431
N  3.485284 3.021241 14.696469
N  1.529294 17.893339 17.774587
N  14.710138 17.709325 18.447012
N  13.291444 11.670548 12.135821
N  13.081602 13.438356 17.292359
N  17.176603 9.981948 1.462515
N  2.055332 4.497803 1.238005
N  2.805796 5.650371 3.489771
N  11.257493 6.174685 11.059363
N  5.421381 1.944977 18.977427
N  7.446605 8.565007 20.292314
N  18.552944 14.941564 3.257595
N  19.466200 4.240101 3.178988
N  8.131529 7.543952 19.718647
N  6.512099 16.895646 10.120761
N  8.157374 3.549348 12.097521
N  14.913025 8.499678 11.867307
N  10.404171 16.451986 3.240856
N  7.016912 16.121301 0.891556
N  1.844439 4.722383 4.827283
N  3.499447 14.667241 18.566243
N  7.223505 7.992699 4.993907
N  1.251108 13.506593 13.573954
N  3.816484 0.175619 14.962986
N  19.988876 12.557177 10.118009
N  5.125630 9.670345 18.329839
N  13.547754 10.992116 12.828069
N  16.072368 14.636252 3.545518
N  5.097667 6.660653 3.438832
N  20.644903 0.826302 20.417195
N  12.028743 7.958539 4.711696
N  10.501909 7.692425 14.002577
N  18.577437 0.430700 17.574245
N  17.507704 6.189671 4.976113
N  2.895928 17.207374 12.798979
N  5.929504 10.715284 2.917161
N  3.057175 18.532305 14.598432
N  4.721554 10.623077 15.897321
N  6.932225 16.885280 11.053625
N  19.670990 3.091544 17.686883
N  1.977185 6.518656 2.352409
N  9.688289 1.679798 4.350143
N  18.296018 17.949353 15.823047
N  4.704086 1.882541 15.453399
N  14.722962 16.849670 14.573993
N  9.118773 5.635125 9.111767
N  3.577634 18.833313 10.778390
N  1.872530 0.217958 9.404212
N  6.370842 8.749098 19.268058
N  7.456567 10.313176 4.464729
N  19.708243 7.349425 5.449000
N  8.041171 2.635672 20.351813
N  2.229682 4.527519 20.214379
N  15.316890 7.715544 17.351838
N  4.880834 2.194184 13.951232
N  19.774305 19.457460 19.771219
N  5.485339 5.750913 3.140245
N  5.111478 14.703146 20.363172
N  3.014759 5.961963 1.238310
N  9.784192 12.563206 11.183778
N  5.063097 5.046041 0.354820
N  5.631283 10.048220 9.637511
N  5.043983 13.255186 7.366023
N  3.368944 2.192765 1.286815
N  1.791073 7.445265 1.969663
N  5.270753 6.046448 0.013967
N  9.774797 7.367124 7.626455
N  15.533053 11.256305 3.165694
N  19.702792 12.884556 2.026389
N  7.583674 6.981973 18.131692
N  15.030906 14.482687 3.604818
N  12.960413 17.278274 8.473902
N  0.004828 19.752190 6.806879
N  6.320675 5.202423 14.737305
N  4.323321 4.139954 1.610276
N  0.108236 1.629062 17.821377
N  4.242165 1.393360 14.007384
N  16.549740 17.000047 12.443654
N  3.632255 17.273843 13.519840
N  11.308002 12.434642 2.428677
N  16.155280 13.078627 18.539861
N  1.578176 6.322185 0.995822
N  5.465167 12.261098 11.153033
N  9.460350 8.298781 11.510228
N  4.026918 5.169988 0.247920
N  5.282631 2.802097 15.545593
N  2.609141 1.133221 13.132421
N  4.255346 13.735495 4.932619
N  2.796514 8.796296 16.982698
N  12.180882 5.904889 20.487112
N  0.659508 10.425943 16.258817
N  1.136786 1.240967 4.825763
N  3.108438 8.511906 15.399909
N  19.665243 1.956807 17.219095
N  18.773649 3.627434 12.545598
N  17.086836 12.639894 18.677877
N  20.679166 5.377335 14.583135
N  9.847984 7.346976 15.936029
N  12.646073 20.428611 16.656701
N  4.434210 12.024190 20.080921
N  1.370553 0.094642 11.047083
N  0.392458 4.409909 1.703012
N  5.578594 9.449818 1.833976
N  0.098662 9.704251 13.626592
N  20.615678 7.588687 17.810374
N  18.517504 8.732480 6.373424
N  13.917155 3.126623 4.658056
N  2.252236 8.100662 1.124245
N  8.980121 6.821373 5.645436
N  8.392530 9.702730 0.637197
N  4.437121 15.023854 18.545970
N  7.945038 6.025857 17.982695
N  8.506542 8.046739 11.325864
N  18.102728 10.705981 1.786941
N  3.154892 8.070767 18.132125
N  13.898619 4.305842 8.366550
N  6.850736 5.685136 2.909056
N  0.293656 0.915467 5.315330
N  14.522770 8.273268 10.867176
N  14.554462 19.705743 11.153878
N  10.581936 16.590499 17.460481
N  20.532184 2.622057 18.029168
N  12.077163 4.186784 8.682310
N  18.318702 17.077442 16.362608
N  14.049583 18.143586 9.998929
N  14.135863 12.610170 19.701323
N  11.961093 8.846745 9.414420
N  5.807252 4.193784 15.112988
N  20.004499 20.240954 5.544464
N  8.061059 9.812490 15.764106
N  4.221310 9.123620 3.174749
N  2.544887 8.595489 14.554560
N  8.818465 6.091157 9.961838
N  14.246836 8.117406 7.305323
N  3.188386 20.275426 11.829877
N  13.542796 19.018729 0.797364
N  9.010407 12.707290 4.081578
N  8.953895 8.885667 0.257982
N  3.388002 7.837412 16.116125
N  2.591161 4.201276 0.375946
N  19.406074 12.994242 19.115068
N  0.593513 3.279495 7.719573
N  11.761026 10.188856 5.760982
N  4.482115 4.225558 5.885656
N  7.441950 8.183226 7.022986
N  0.898462 0.862274 8.487302
N  11.017209 18.124674 19.176465
N  20.423583 18.336162 17.442928
N  4.761755 14.573225 5.194223
N  5.744407 7.975356 17.579813
N  8.294721 10.762457 4.867283
N  8.509671 12.783845 15.303453
N  5.279091 11.797595 17.200493
N  5.562600 5.006074 19.282216
N  3.714237 7.215369 14.491680
N  2.035471 17.125808 14.192053
N  16.953800 14.894022 1.647815
N  1.166792 3.056131 19.407434
N  4.053362 13.257014 3.197854
N  12.912967 0.757754 15.461515
N  15.927074 11.614666 4.044855
N  16.744134 5.177827 7.718396
N  12.950930 13.939339 18.526046
N  2.076848 7.277180 12.893906
N  20.135208 1.790832 1.447934
N  18.709789 10.626880 2.582932
N  3.379044 14.023661 4.519486
N  3.131193 7.783364 17.111557
N  19.171136 13.592204 19.912071
N  3.389515 19.472036 12.427668
N  1.989068 17.477880 16.963586
N  14.156325 12.899452 13.885892
N  2.393846 11.601252 4.420958
N  4.022387 17.918621 10.429964
N  13.097556 1.491936 14.734421
N  6.203254 12.068840 16.774829
N  18.027880 15.630936 15.434667
N  4.133497 11.090768 20.577270
N  7.188980 4.980892 10.675095
N  0.049224 7.201597 5.402415
N  7.907728 12.520073 5.254620
N  11.825740 10.374613 10.139035
N  1.266093 2.241136 5.055583
N  3.027391 11.032783 7.120350
N  2.133022 7.592170 4.936693
N  3.990151 14.779555 10.370751
N  3.556803 2.527173 16.517458
N  4.660086 6.197361 14.740223
N  6.376683 10.612059 17.887903
N  19.440389 2.812221 5.607385
N  12.235265 9.244358 5.909321
N  3.629610 3.700533 2.220256
N  17.059008 5.766757 18.828453
N  7.852331 19.411488 12.284735
N  6.723744 16.001451 10.565838
N  8.641822 13.537509 3.473803
N  17.980872 9.933129 15.440073
N  11.468777 5.727464 5.562880
N  17.127149 10.991548 1.778318
N  8.133006 13.587714 2.415377
N  5.479348 18.591612 0.525152
N  20.375104 8.609475 4.311213
N  6.779773 19.275647 11.786443
N  6.249848 10.150063 15.261906
N  13.316007 2.696602 5.455654
N  12.853321 12.921829 11.608167
N  11.480929 7.874532 14.235987
N  2.323758 3.581809 7.068860
N  18.484467 2.397823 0.101055
N  1.128736 3.208784 5.852718
N  6.453648 17.688950 6.187067
N  19.451880 1.135360 20.583432
N  10.545865 7.168511 6.979198
N  10.259937 15.956352 16.731256
N  18.896476 10.489689 1.135061
N  5.925550 16.645068 10.900503
N  11.400624 16.075814 19.225334
N  0.602248 5.592408 18.486041
N  18.839174 20.588972 3.872400
N  20.565656 10.109407 14.587457
N  9.474138 12.200549 2.156470
N  0.796571 5.468822 3.339627
N  10.240828 7.335089 0.519544
N  5.242205 4.401672 17.562036
N  10.862615 7.590230 15.005010
N  15.253225 18.586129 18.478349
N  0.809206 1.371997 20.393908
N  7.826386 6.146210 2.735091
N  1.581426 20.173736 7.553837
N  2.934752 15.748723 14.154782
N  18.916406 2.728170 4.120118
N  4.812067 3.367596 1.193397
N  2.823461 18.289446 15.569894
N  0.575283 5.008572 20.175316
N  13.038854 6.528234 20.503129
N  1.807202 3.685970 5.139751
N  10.306155 7.679090 8.708422
N  1.590881 16.948449 18.233028
N  12.511569 9.097013 4.874853
N  3.438814 4.988560 4.070996
N  10.888713 5.162520 8.386641
N  8.033297 9.431541 8.145482
N  4.845397 7.689336 3.358973
N  8.642484 5.566172 3.013657
N  7.166145 16.969342 13.305061
N  14.353256 13.369025 19.019961
N  1.914757 9.218512 5.647242
N  8.128656 9.986634 6.588787
N  17.073180 15.102953 9.768516
N  7.585366 9.445547 0.022214
N  9.807006 13.834049 16.921686
N  20.438099 9.950205 16.444308
N  18.386486 1.688355 5.170759
N  13.180279 12.417080 17.026312
N  16.695611 14.058851 2.207146
N  17.331410 14.760610 2.630998
N  16.582332 10.863226 5.682029
N  15.226460 16.302635 15.310943
N  1.875599 8.378196 2.494231
N  0.309882 9.305620 4.780938
N  14.709177 18.563641 6.927361
N  10.200195 13.847532 17.906099
N  0.103020 13.409338 2.816308
N  19.055486 5.067489 8.327006
N  20.018948 4.160131 17.590039
N  10.438338 12.506910 1.869525
N  2.293877 13.251999 9.356568
N  19.073161 1.696681 4.129677
N  5.196999 5.852539 19.714372
N  17.871629 11.809531 7.751413
N  2.556015 7.643659 0.241829
N  16.485043 6.833951 0.949826
N  14.694447 7.224460 6.969014
N  16.523987 7.537197 15.375758
N  8.074984 15.842144 0.865524
N  3.008978 9.396062 0.180924
N  5.821535 3.988680 3.557357
N  6.828538 9.066531 16.986813
N  0.904215 9.188275 5.591799
N  11.864497 18.890025 7.463936
N  4.607892 3.329163 16.078628
N  1.340552 6.308318 4.850961
N  6.337180 6.892978 15.110335
N  11.123506 11.682722 1.777031
N  18.298900 1.732172 18.402304
N  5.040796 18.068327 1.366453
N  19.258622 2.284433 1.097866
N  5.435049 18.029929 6.252170
N  19.626833 19.459098 4.915890
N  19.358935 6.587796 3.515113
N  20.237788 5.065409 19.952877
N  12.010628 11.728940 2.262194
N  13.574582 17.002225 5.728184
N  0.236774 20.304497 2.892591
N  5.829729 6.385039 16.254976
N  6.114642 6.382591 3.708745
N  3.830190 12.673986 17.445398
N  5.851336 2.528748 13.692469
N  11.209856 11.839898 10.351764
N  5.331602 8.421406 1.730830
N  15.291560 4.990282 17.905192
N  14.586002 3.064916 15.601574
N  3.668229 12.279925 9.133781
N  2.259008 17.509102 15.911248
N  4.339547 6.640968 12.971118
N  6.256050 0.839467 11.493564
N  3.733231 13.123509 8.584347
N  9.733332 19.380375 11.522494
N  19.153189 9.789077 4.099671
N  3.491622 1.105453 15.175380
N  3.243604 18.424137 9.894822
N  5.813515 17.265005 6.898534
N  2.630274 0.093730 4.423767
N  1.596273 7.459993 20.704165
N  12.860480 20.538827 20.552145
N  2.939873 4.451153 2.384304
N  10.083085 12.519693 4.591008
N  5.437684 8.966787 0.813308
N  8.780363 19.705984 11.931952
N  6.904578 17.859447 12.727089
N  3.531053 11.199562 16.337298
N  10.829066 20.666095 16.632481
N  9.923635 6.226768 10.019521
N  9.102170 3.004302 15.917153
N  14.228921 5.230953 17.994408
N  0.843065 12.770497 14.164141
N  3.050899 3.855034 19.224341
N  3.387861 15.653630 16.906587
N  14.997222 4.877778 15.028644
N  1.374103 2.661433 2.917247
N  13.157774 14.911916 18.327497
N  7.247549 8.787021 18.694173
N  3.095621 7.141917 18.693088
N  14.961259 17.659474 10.263895
N  5.330396 6.859279 19.299440
N  17.411763 18.946696 15.087361
N  5.969571 11.108300 19.383510
N  8.450104 5.900152 11.516479
N  6.876413 5.198618 16.402618
N  12.472784 13.040587 16.569863
N  5.600532 9.276266 14.844577
N  13.444657 4.345104 9.293537
N  0.340625 7.927642 4.711212
N  0.703676 5.081903 15.300462
N  2.383933 18.975117 0.465377
N  1.903913 19.867720 13.170979
N  18.864829 1.406383 17.603942
N  2.292957 9.307785 4.028152
N  13.371086 6.610095 8.228971
N  20.063263 19.557760 0.571759
N  0.109591 4.898911 19.167062
N  2.600593 5.426861 4.563786
N  0.860840 0.406967 2.993186
N  6.376115 9.278797 1.110808
N  1.984073 7.297666 3.914289
N  9.205914 7.002693 10.144424
N  3.483973 1.297793 12.489285
N  7.973098 8.626125 0.488193
N  16.299915 6.687822 14.778699
N  10.790041 0.908886 1.837539
N  4.002053 2.676546 15.601335
N  2.243604 20.247383 11.381855
N  1.526702 8.817047 1.500680
N  0.973575 13.712030 14.515313
N  19.061299 20.160622 0.625049
N  13.577444 11.297452 5.464584
N  15.171544 18.970107 7.725466
N  1.257160 3.885796 1.435103
N  7.065935 6.215848 18.576053
N  2.991935 19.303313 9.176418
N  1.699894 11.259213 3.696660
N  4.418933 11.620030 18.866629
N  8.865930 7.895030 4.501581
N  6.177852 6.443501 17.277322
N  5.936343 13.237280 11.125508
N  3.757505 2.286748 13.640925
N  0.782870 20.463127 6.884530
N  6.549169 8.526480 0.039192
N  5.769870 15.086994 14.765744
N  2.335570 6.289852 5.087946
N  11.731516 8.530749 7.431349
N  11.523987 12.967000 7.614627
N  12.911486 4.145952 8.054574
N  2.990950 9.813751 18.737406
N  1.646827 0.270602 19.501443
N  18.006953 3.582485 13.237101
N  14.684246 12.356311 18.822640
N  19.700663 0.501432 2.744804
N  10.817479 8.641653 4.939967
N  13.953158 14.179773 18.321795
N  2.786099 7.070129 5.644965
N  18.739130 9.280435 15.331368
N  1.854184 14.159782 9.305718
N  18.220423 2.046878 3.633353
N  1.632305 20.384489 4.361888
N  8.833572 12.744088 2.777382
N  18.755128 8.069692 10.221414
N  9.152437 8.535156 6.448962
N  7.767427 10.669507 16.199845
N  18.206593 9.718358 1.216742
N  7.770880 9.982341 3.501810
N  6.009292 13.911131 6.793562
N  13.908361 12.069271 13.307511
N  9.202403 12.589792 5.093450
N  13.216556 6.937881 14.815180
N  2.657684 2.798065 0.711982
N  18.348079 20.608956 19.640114
N  3.738761 15.510246 19.201660
N  5.431836 8.023042 16.564059
N  16.096021 3.161474 13.001244
N  18.997062 20.472109 5.767973
N  5.742796 6.109639 14.704732
N  2.720224 6.742125 12.269110
N  14.763841 2.460003 18.326062
N  12.821938 8.325530 9.780858
N  3.577166 3.843106 0.270982
N  11.829172 10.447282 9.064716
N  0.306305 19.428556 3.422076
N  20.633879 1.158681 6.279423
N  4.659726 14.039458 7.891106
N  13.481304 5.260596 7.092981
N  2.248346 16.454306 6.076549
N  20.168851 11.761141 2.205875
N  5.302411 9.882683 2.921321
N  7.556689 8.969051 5.429254
N  13.494744 16.939448 0.205345
N  16.357487 6.565462 1.984362
N  1.715496 1.208304 8.983787
N  3.186193 15.396262 15.919285
N  10.124345 11.222031 1.051896
N  7.909824 5.229547 7.525813
N  9.336121 12.117281 15.051600
N  14.127468 18.951056 14.354706
N  2.101083 8.615355 18.386364
N  3.730717 13.839930 17.275825
N  2.707178 17.424705 1.733224
N  5.182894 11.933996 18.205938
N  19.033883 1.271664 5.898981
N  3.406617 14.357433 15.708775
N  10.423327 9.397427 5.593546
N  18.677512 7.732758 6.777460
N  7.563976 5.290820 6.521957
N  4.474479 1.620455 19.127289
N  1.037104 11.927538 3.311488
N  8.220791 10.494593 17.170227
N  13.301413 8.542829 7.420046
N  0.396717 14.222216 3.343197
N  12.788650 7.244343 4.517801
N  7.494563 1.808366 20.208513
N  17.518017 10.132417 0.499899
N  18.947517 13.284147 2.652228
N  4.122608 13.185688 16.555488
N  8.912610 6.899492 4.222166
N  5.902822 5.881141 1.700343
N  5.540727 7.139044 14.448104
N  11.937947 13.051731 11.173951
N  17.772466 0.732456 19.660705
N  1.986897 2.625580 6.665937
N  18.660251 12.223504 14.589184
N  0.534078 6.616182 1.125515
N  20.674814 15.236155 10.167891
N  17.843687 2.152911 19.984019
N  13.059688 11.220247 4.515240
N  0.976571 2.007774 4.110535
N  2.267772 1.715205 14.071183
N  11.553412 9.325354 5.150297
N  12.611373 6.126504 14.658151
N  3.110279 7.990375 1.741383
N  7.717781 5.155196 3.058311
N  11.730643 15.131543 19.512771
N  6.158339 2.058731 3.216499
N  2.949914 4.720352 18.610635
N  1.038253 5.330882 5.030524
N  12.991086 19.624538 16.030551
N  16.603084 19.647768 15.238951
N  12.769174 18.328105 0.845707
N  4.984950 10.012802 14.321770
N  14.083847 10.860740 4.671998
N  11.499588 5.622543 11.911319
N  19.340467 8.772717 4.021523
N  2.418177 19.742359 12.232977
N  18.978691 4.233344 4.914115
N  19.323853 5.896971 2.732842
N  5.874725 1.100149 3.483967
N  7.054962 10.366681 20.703636
N  4.459395 8.467874 17.026132
N  3.146434 2.321923 5.571429
N  0.551935 18.533320 16.835198
N  9.002370 10.478033 6.784362
N  0.504195 0.102631 17.914770
N  0.090688 10.733432 3.763474
N  12.783616 4.912895 8.707483
N  6.307573 7.297360 19.488350
N  15.813614 7.342841 1.607064
N  6.421119 14.868223 4.391485
N  13.171248 5.600975 8.079495
N  15.926965 8.532675 16.941878
N  3.469811 14.551841 11.228847
N  2.488188 19.650551 7.242599
N  2.485986 17.432718 17.892558
N  8.305774 17.606543 5.929118
N  5.775230 3.073484 14.620897
N  10.780149 11.428412 15.597843
N  9.024106 3.457051 12.663204
N  1.755198 2.251552 9.051033
N  14.527310 4.678392 14.099716
N  1.160528 18.917315 5.417340
N  5.085390 7.135604 16.131240
N  2.154808 19.852959 9.411864
N  17.774102 19.697419 17.914438
N  3.769561 3.089289 19.424411
N  1.800283 1.016787 14.700404
N  3.796929 15.069180 5.018466
N  5.159492 6.282271 6.961937
N  1.939334 4.670528 18.878008
N  20.038450 20.603910 0.622076
N  6.897892 8.785253 1.912453
N  18.530320 2.283949 19.214303
N  14.332265 19.608556 15.091678
N  10.070466 8.406774 7.970839
N  4.167041 3.245886 17.037729
N  17.538773 1.036027 18.652025
N  2.644105 8.897195 2.899262
N  12.372322 8.012746 8.092001
N  3.929493 9.252004 0.655073
N  13.133563 8.731780 8.405804
N  18.096400 8.778710 9.930277
N  0.906411 17.413866 17.088818
N  13.019490 0.490239 14.404598
N  6.760507 18.516749 11.129325
N  0.730116 19.970332 18.403982
N  2.007505 1.226547 1.170300
N  18.123506 1.759935 6.134393
N  19.015393 4.307464 9.061886
N  7.881648 7.775583 1.146807
N  7.389612 5.716011 11.356224
N  20.087394 20.347305 2.243176
N  7.189140 6.965376 4.711364
N  2.774928 10.278608 20.445945
N  10.156077 1.073061 5.047290
N  6.505737 16.641586 18.064618
N  19.721390 20.366157 19.349712
N  5.118810 13.091979 4.735692
N  17.641006 0.016937 17.785160
N  0.391545 6.640827 6.270536
N  17.828477 9.262624 2.119372
N  3.689166 9.349068 15.303955
N  4.586981 13.367634 17.513291
N  13.024449 17.359459 4.894682
N  4.982459 9.579263 10.275013
N  2.639174 3.051980 5.056806
N  10.979803 6.646207 5.792317
N  11.302391 5.996675 6.512786
N  11.051015 9.950515 9.585209
N  9.453614 6.667213 8.317623
N  7.020439 12.326934 18.348855
N  19.465150 5.430735 5.676857
N  7.876162 12.559617 2.422676
N  6.133170 5.876080 18.160853
N  5.592883 12.877387 19.512934
N  1.908246 3.386935 3.445616
N  10.422544 17.236121 19.355438
N  20.481287 5.303859 3.959007
N  1.523923 5.347816 0.734385
N  2.206048 2.071269 13.038663
N  4.031716 4.684766 15.003620
N  15.463525 8.662696 11.040216
N  5.516055 11.876701 19.895632
N  2.568358 5.218352 1.767744
N  3.367892 7.351745 2.508958
N  1.035185 1.395106 0.696445
N  3.223080 1.747541 14.366744
N  8.422041 18.596704 6.361358
N  5.979411 4.865983 3.093445
N  8.717860 9.077477 11.555991
N  6.873034 14.269236 3.643798
N  11.571790 6.478999 8.250769
N  15.632364 3.016584 12.078179
N  1.658360 0.123659 5.840036
N  6.040991 12.352096 18.747108
N  0.761615 0.589023 6.196470
N  4.444502 5.957567 3.058634
N  1.317461 1.759561 8.243104
N  15.853515 2.211808 12.632563
N  1.334258 1.209765 19.073536
N  19.205419 0.761916 3.594942
N  2.570268 19.608023 8.292265
N  2.089460 20.447599 10.306194
N  16.662531 11.143558 4.719296
N  16.973506 14.950488 8.720594
N  10.868226 11.055374 10.906442
N  4.710201 7.615461 17.488741
N  14.164831 7.286287 7.917055
N  19.403556 1.288504 0.850642
N  17.734225 1.255573 20.537828
N  14.235505 17.249667 20.257932
N  4.322601 3.789305 18.953432
N  1.628091 8.772665 13.673161
N  11.412463 6.697495 11.997322
N  7.967687 9.928867 5.505573
N  20.199073 7.133832 3.919866
N  4.471479 4.331508 15.846897
N  7.462538 9.280925 4.264951
N  16.973828 13.662501 18.768290
N  18.733197 20.131222 17.751325
N  13.226043 16.322205 5.045486
N  0.122140 19.297857 17.482842
N  3.368272 8.666958 3.690337
N  10.757548 19.487055 11.341450
N  11.873546 1.026498 1.794365
N  5.906074 7.906198 13.802203
N  15.152922 2.279376 17.381493
N  19.298390 20.456405 4.773607
N  7.925305 13.115816 4.399207
N  2.987906 20.396065 14.109896
N  5.426600 4.067097 1.762614
N  5.203780 7.151326 7.503769
N  2.873833 19.480566 6.246798
N  2.265676 9.846434 2.654668
N  4.021537 6.020170 0.845015
N  0.901297 12.922343 3.539360
N  1.167409 8.990480 18.763439
N  2.852451 6.470271 2.840052
N  10.697810 10.425600 15.464152
N  12.340121 0.665227 0.058192
N  7.590148 9.715430 16.725289
N  6.749777 2.806073 18.857706
N  16.743536 0.410205 18.232340
N  9.407464 9.981405 5.941475
N  6.195473 13.262773 4.938829
N  4.075125 11.783479 17.852235
N  4.533897 7.075190 15.210633
N  18.857451 20.458955 18.701111
N  0.136840 11.511439 3.015253
N  4.386031 5.080085 1.250639
N  7.061369 7.887370 7.923539
N  19.828890 11.643848 10.687430
N  5.133501 11.761557 0.140484
N  4.004488 8.093280 2.917322
N  2.822734 19.302326 15.259773
N  7.928841 1.965321 0.458837
N  4.250270 8.279010 4.019029
N  3.037932 0.364013 12.502916
N  1.764757 8.448676 20.502602
N  8.020008 8.479205 4.632890
N  3.672122 1.294307 16.238494
N  9.437600 16.892116 3.455490
N  9.785200 16.846229 16.841399
N  3.495350 8.896536 18.629999
N  20.338417 6.223227 4.426215
N  12.690006 19.523384 7.783173
N  12.759132 13.681682 10.884094
N  5.243946 13.305953 3.375225
N  5.005142 14.156095 6.926698
N  1.273933 4.525716 0.122285
N  15.523069 7.213600 15.324466
N  5.765642 14.786836 5.225079
N  14.735036 17.187488 15.521164
N  12.886135 5.852160 0.506024
N  4.703849 12.382356 3.216500
N  15.051491 5.897438 18.279621
N  4.653675 6.287305 7.863855
N  6.277186 11.049542 16.978688
N  20.577282 0.299301 19.374162
N  4.461884 3.089080 14.366322
N  13.463862 17.620936 9.321544
N  8.899903 11.763191 3.757635
N  20.442853 0.685401 17.628047
N  19.682567 10.973552 2.658164
N  16.534836 17.753603 11.757372
N  7.084878 3.300684 18.023569
N  10.893049 10.663546 1.473283
N  20.296003 5.375295 4.990065
N  17.177382 6.525357 19.474403
N  7.986227 4.844376 11.342470
N  18.355172 5.098910 9.043570
N  11.267926 10.927045 14.783889
N  10.499642 11.862666 2.797750
N  3.922891 8.617707 1.553427
N  1.710481 17.873851 13.604112
N  9.083971 6.915210 6.681353
N  6.217681 5.667329 15.673604
N  7.305147 6.972161 19.331112
N  7.275416 9.878937 0.914226
N  12.253558 7.625095 3.692443
N  1.229334 13.294022 9.349928
N  5.160160 8.781355 17.771975
N  16.776230 9.150269 1.973054
N  4.583896 8.824302 18.688327
N  2.678994 3.031717 4.016801
N  3.362036 10.162004 17.820810
N  9.510591 16.166140 2.708686
N  12.746262 15.701547 1.995683
N  17.576661 4.535481 7.658799
N  1.830428 10.240840 4.040546
N  17.710048 8.976297 15.266024
N  4.509804 11.357984 16.562628
N  14.285410 2.435322 14.779489
N  18.704971 8.231192 9.197689
N  9.700867 7.971215 9.553824
N  9.248007 6.094514 4.871013
N  14.005499 17.430441 10.723479
N  5.350732 4.218790 6.552964
N  12.259395 4.002280 7.247329
N  4.856874 15.148448 14.169351
N  19.587759 19.840450 1.420086
N  12.699183 11.589316 13.058061
N  18.970666 2.730284 16.940916
N  18.212753 10.019302 4.417923
N  4.656752 9.041133 2.227345
N  3.473484 9.580242 16.995575
N  12.545230 5.005448 7.459402
N  2.145130 8.994768 0.624053
N  10.100404 5.808397 8.695560
N  6.429411 11.450875 18.488430
N  1.319748 3.405647 6.906175
N  7.417135 7.430304 6.311774
N  11.817651 4.957356 13.548286
N  17.938014 12.129855 15.398420
N  2.227658 4.362769 3.148940
N  17.963959 7.947498 6.014999
N  2.967715 11.309713 20.698711
N  8.122960 10.225518 1.522756
N  12.459494 17.897783 9.156371
N  5.437503 7.061948 0.302715
N  9.073130 1.040383 4.955879
N  3.367301 2.700619 2.175539
N  1.304876 2.562616 7.521453
N  18.844726 0.558196 1.311028
N  19.003964 12.236513 10.327213
N  5.536326 13.746508 20.685500
N  17.479177 17.337090 15.743166
N  8.794766 4.332572 12.151356
N  19.152315 3.711931 4.030958
N  16.868226 1.867013 20.303368
N  5.516986 4.965327 1.254367
N  1.594441 3.058887 1.886301
N  18.370719 9.075082 3.041866
N  1.781896 16.239030 5.174687
N  2.780303 17.848064 13.791376
N  13.602920 5.954432 14.687329
N  0.961246 8.489592 3.056564
N  1.736431 9.096276 19.656049
N  6.433927 19.480892 10.813956
N  19.832154 10.368465 3.545989
N  5.578776 10.891375 14.045385
N  5.204293 14.252037 14.468054
N  10.351349 6.575828 16.342974
N  19.088409 13.608547 1.642082
