1024
Lx= 20.726885, Ly= 20.726885, Lz= 20.726885
Na 12.425846 10.396033 20.720293
Na 12.340763 11.336387 20.344053
Na 11.836227 11.654159 0.640734
Na 11.562795 10.609301 0.518570
Na 13.104643 12.434652 19.740892
Na 11.315187 11.073055 1.470450
Na 10.734729 10.029473 0.909517
Na 12.379659 12.950507 20.290927
Na 12.122816 12.195809 19.511239
Na 12.348034 11.605380 1.530608
Na 11.886710 12.557097 1.599453
Na 10.321292 10.703369 1.622017
Na 12.166637 11.140465 19.375534
Na 12.674843 12.161515 0.112400
Na 11.011674 12.164623 1.268910
Na 10.685401 11.606775 2.048693
Si 8.302675 3.698463 0.496920
Si 4.830330 3.350634 0.000855
Si 19.962464 8.623535 18.010998
Si 20.090501 9.967372 17.346566
Si 0.577110 5.060602 3.616686
Si 3.792913 3.247185 0.170824
Si 19.997945 11.485135 18.166234
Si 19.854802 7.059164 1.418967
Si 3.299331 4.960013 1.518239
Si 20.219063 8.153801 19.740389
Si 4.697804 4.789476 20.333260
Si 2.486288 6.060612 2.914803
Si 2.514653 5.069848 19.268169
Si 2.168578 6.398126 20.331018
Si 19.003451 7.959160 19.983403
Si 7.741102 2.829189 0.332839
Si 5.605274 5.227977 19.313699
Si 3.291468 5.005758 19.995502
Si 8.773573 3.719085 20.330135
Si 5.401545 4.252547 0.213765
Si 19.471471 8.832511 19.770603
Si 4.236704 5.535129 19.845836
Si 18.646194 11.196399 19.158161
Si 5.003086 3.742697 19.764345
Si 19.672265 8.655743 0.660548
Si 2.554049 5.613270 1.095008
Si 2.857265 6.465798 1.525466
Si 6.530297 3.807353 20.376447
Si 0.285866 11.504275 17.999050
Si 19.278238 9.258220 17.496868
Si 0.371786 8.012984 18.336684
Si 7.944590 4.444721 1.203762
Si 5.360299 2.776468 20.071599
Si 4.061862 4.151341 0.648754
Si 19.754078 12.469516 18.343524
Si 18.401824 8.726058 19.566664
Si 6.246456 3.300587 0.557922
Si 19.134751 10.239148 18.925150
Si 19.480702 7.776748 0.136803
Si 1.413706 6.554394 19.653019
Si 1.614736 4.379496 20.424301
Si 4.947506 4.352477 1.201904
Si 1.623892 5.202619 0.428441
Si 20.670803 4.300728 3.300871
Si 20.138113 5.128981 1.928702
Si 3.532891 4.988837 0.492421
Si 5.892892 4.373218 19.794942
Si 1.749624 4.743416 3.362922
Si 1.421535 7.370932 18.958416
Si 19.192975 7.198848 19.234223
Si 0.994856 4.416268 19.550166
Si 0.450262 3.813181 2.542161
Si 19.566086 10.496984 18.026280
Si 19.323121 5.332845 1.268737
Si 1.102361 5.134783 2.688694
Si 20.612494 12.493310 17.823039
Si 19.487057 6.183848 1.893387
Si 7.521445 3.806005 20.207130
Si 8.270640 2.768729 20.172014
Si 1.962725 6.471218 2.091256
Si 7.257462 4.123304 0.449223
Si 19.663962 8.029144 18.855231
Si 0.708047 4.688636 0.185548
Si 2.640232 4.019690 19.143759
Si 20.042951 5.896827 2.675202
Si 0.036002 8.973206 18.565580
Si 1.353095 5.780763 20.369746
Si 20.251728 3.820855 2.009403
Si 1.793934 3.676236 19.662812
Si 19.798925 6.833731 0.420055
Si 0.618651 8.010166 19.309084
Si 19.321160 9.315127 20.643685
Si 2.236974 5.127078 2.487188
Si 0.597918 5.948278 19.667332
Si 19.612048 4.154905 3.418920
Si 6.449146 4.077523 1.174011
Si 5.564971 5.323934 20.371411
Si 20.060317 3.331143 2.892810
S 18.891704 20.305395 6.777695
S 19.172016 19.635867 6.056971
S 19.599188 20.610341 6.095754
Mg 14.890389 20.034385 2.042272
Mg 12.316230 1.147358 3.091479
Mg 11.343636 1.830351 0.042097
Mg 14.504490 19.941535 1.071385
Mg 10.501919 19.153778 20.515024
Mg 12.451305 1.741976 3.885535
Mg 11.738149 1.825943 2.523539
Mg 10.558612 1.255989 3.822969
Mg 9.714180 1.806904 1.970216
Mg 12.079516 2.311649 19.675054
Mg 8.652344 2.065517 2.070699
Mg 14.836046 1.039003 1.785216
Mg 10.413087 1.183016 2.742127
Mg 9.523296 0.860525 2.356639
Mg 11.387283 2.763386 0.618322
Mg 14.576139 2.242078 0.352449
Mg 12.879725 3.530958 20.558338
Mg 8.030872 2.882510 2.062919
Mg 10.695339 18.882327 0.802404
Mg 11.481233 1.599493 3.468885
Mg 11.388963 19.376024 1.849335
Mg 11.609637 0.126674 0.893254
Mg 13.821233 0.982214 1.858653
Mg 13.407272 3.442392 1.248276
Mg 11.713689 17.959696 2.457696
Mg 11.635132 2.894007 20.370409
Mg 11.888195 0.741892 0.114087
Mg 11.506281 18.898746 2.748287
Mg 12.909084 0.420035 2.640441
Mg 12.089423 19.972816 1.101896
Mg 12.415338 20.651889 1.799697
Mg 11.486553 20.365974 2.102896
Mg 14.572714 1.941490 1.306941
Mg 7.906410 1.424884 1.624508
Mg 7.220380 2.250297 1.721063
Mg 13.699455 18.476858 1.698069
Mg 13.960470 20.187265 2.530913
Mg 14.879553 2.702959 1.915393
Mg 12.723295 17.796783 2.558754
Mg 11.666531 18.699035 1.071755
Mg 11.259038 0.876731 2.128703
Mg 9.835275 19.388189 1.155978
Mg 13.794341 2.738435 1.846206
Mg 13.288967 3.675006 19.551135
Mg 13.654533 1.112322 2.887824
Mg 9.662380 19.784635 0.049534
Mg 11.662354 1.322691 0.910102
Mg 12.994610 2.448213 20.489551
Mg 14.089160 19.409043 1.842453
Mg 9.439483 18.798245 0.447979
Mg 10.674407 0.431794 1.337513
Mg 13.180297 18.767851 2.514971
Mg 11.536526 3.875001 20.008975
Mg 13.690943 2.859277 0.438998
Mg 12.328008 3.341009 19.600913
O 14.992301 1.309755 11.887795
O 11.690010 0.942072 17.788450
O 13.666860 19.379861 13.323700
O 17.528815 1.535500 13.980383
O 13.052660 1.755371 15.429622
O 14.159195 17.832177 14.234505
O 12.378176 0.167464 14.823133
O 6.357566 17.648335 17.240249
O 13.518528 2.230082 12.441402
O 7.063762 19.181059 17.850894
O 17.701882 2.539375 14.024286
O 8.185213 1.514816 17.874590
O 11.058824 1.063565 19.300738
O 6.096257 19.627881 17.644386
O 12.668980 18.698645 14.782797
O 15.315445 1.266881 13.674689
O 9.139990 0.107137 19.234435
O 13.382222 20.661986 14.555175
O 14.242788 0.033281 12.899570
O 14.936145 2.347535 13.282901
O 14.233557 16.829013 14.311850
O 10.724171 0.310298 18.662466
O 12.590507 0.571398 17.444611
O 14.882841 3.657814 11.600664
O 15.560645 2.175508 12.244430
O 14.906575 0.588243 14.785604
O 7.055501 0.369348 17.076472
O 5.295519 18.654192 18.085026
O 12.250522 2.270136 15.773991
O 13.218165 17.528804 14.633197
O 14.370435 18.888934 12.731193
O 11.570123 1.560377 15.494599
O 11.807741 0.486725 18.728313
O 16.483855 2.659117 12.370666
O 13.896985 1.347383 13.480034
O 12.840945 19.530149 12.757148
O 13.841676 19.772221 12.371871
O 15.511590 2.237139 14.116475
O 12.540071 0.865531 15.637343
O 14.574251 3.250617 13.518664
O 17.240962 3.159908 11.785248
O 12.095192 1.036789 16.617029
O 6.474107 20.590882 17.799992
O 12.823472 17.960374 15.464521
O 17.833370 1.589262 13.019197
O 13.184306 16.527477 14.396820
O 6.931030 0.278693 18.696066
O 8.732833 1.113647 18.718473
O 5.163578 17.666245 17.723361
O 14.044545 0.687629 14.258693
O 17.178445 2.356168 13.128316
O 15.634496 2.995383 11.272178
O 13.312635 0.129146 13.263793
O 13.387157 19.702074 14.246218
O 14.000385 2.363719 13.865536
O 13.551513 0.924890 12.612273
O 6.272507 18.446325 17.842206
O 15.745413 1.987157 11.255542
O 13.347922 2.942043 13.215153
O 16.532748 3.570620 11.097308
O 14.801576 0.867214 12.835714
O 10.418448 0.821503 20.073114
O 9.082367 1.903584 19.267866
O 5.511560 18.027592 16.852815
O 15.595249 0.359357 14.002932
O 7.497839 0.777389 17.953305
O 11.218473 1.511616 16.459621
O 9.457072 0.956698 19.676055
O 13.655305 19.110416 15.011861
O 8.113259 0.367950 19.078548
O 14.902249 3.067002 12.488997
O 14.512043 2.209274 12.137635
H 18.087409 7.880352 2.760824
H 18.042167 8.901365 2.827505
H 18.180312 8.316687 3.663634
H 17.220542 8.395115 3.216293
Si 16.800838 5.821527 14.940017
Si 16.152820 3.128681 16.098534
Si 16.213791 6.500561 14.409235
Si 17.089793 6.508806 12.778801
Si 16.442722 4.172650 16.100636
Si 16.540762 6.089883 13.523237
Si 16.655953 5.656704 12.331669
Si 15.746202 5.734597 15.231605
Si 13.795612 4.774275 15.212162
Si 14.339857 5.150671 16.076516
Si 13.689945 5.741382 15.478409
Si 16.646185 3.126285 14.650876
Si 16.951184 4.118708 14.474018
Si 17.042737 2.939847 15.650493
Si 16.459178 5.064160 13.369578
Si 14.029212 4.198091 16.084012
Si 17.216732 4.462475 15.441673
Si 17.705843 5.332022 15.322678
Si 17.304192 4.951519 12.837411
Si 15.170499 5.592031 16.644850
Si 15.816018 5.055675 16.092471
O 15.824394 0.687510 18.920332
O 14.856530 0.429113 19.169689
O 15.259828 0.031627 18.282626
Cl 9.662690 0.380385 13.392274
Cl 10.506263 0.975130 13.738696
Cl 9.293175 1.312086 13.674831
Cl 9.838219 1.544675 12.844148
Cl 10.408806 0.576075 12.753151
Cl 10.693380 1.943565 13.309343
Cl 11.312035 1.140876 12.901731
S 6.050456 5.996714 9.341218
S 5.233817 6.024649 10.072156
S 5.313261 5.262476 9.296382
Cl 6.171941 5.143046 3.692927
Cl 6.898902 10.085398 2.798930
Cl 5.299280 6.949639 3.695388
Cl 4.520350 9.054315 3.311830
Cl 6.301725 10.157556 1.286821
Cl 5.951639 7.459676 4.289611
Cl 4.889511 8.473223 1.460216
Cl 5.971924 5.677940 4.557089
Cl 3.845659 8.346401 3.803718
Cl 5.318136 9.231836 2.526731
Cl 5.360395 9.432127 1.474403
Cl 6.286233 7.305285 3.287937
Cl 6.849921 10.732760 1.941284
Cl 4.537610 8.448222 2.417423
Cl 6.704010 5.728018 3.041913
Cl 4.477065 7.599340 3.460391
Cl 6.044998 9.923559 2.288855
Cl 6.102241 6.344471 3.706643
Cl 4.538455 7.375457 2.398606
N 10.162564 16.105706 8.720789
N 4.140036 19.079432 7.472246
N 6.170611 16.738236 8.889417
N 8.909401 15.397492 4.608863
N 11.219618 14.531094 3.362844
N 6.128251 19.557840 8.487750
N 6.019490 20.612590 8.490329
N 5.047029 15.294270 6.064139
N 2.922931 16.127567 6.567605
N 8.329992 17.002136 9.445729
N 7.083145 0.020607 8.386467
N 6.755941 19.233412 6.861154
N 9.294137 15.689757 8.418864
N 8.239054 13.323226 4.035174
N 3.941225 15.693442 6.971402
N 4.775828 18.076128 7.319794
N 2.477670 18.140487 8.803890
N 3.735245 18.487357 8.186184
N 3.340111 18.525264 9.211349
N 4.968333 15.399867 7.062869
N 6.078805 16.115480 6.740163
N 7.805050 15.462447 7.036303
N 7.045555 0.019386 6.907699
N 5.854798 15.830300 5.785807
N 7.142705 16.272604 7.774843
N 8.822796 15.706932 3.603774
N 8.445175 13.993472 5.515138
N 5.699734 19.215847 9.328792
N 6.935767 15.663858 6.397287
N 8.367728 17.302974 8.428013
N 6.264960 18.836872 7.697053
N 9.113363 16.398162 9.151322
N 9.843691 15.952305 9.715687
N 7.859301 15.846625 5.484712
N 8.532304 14.849485 6.558303
N 7.383045 16.937447 8.617177
N 9.400504 15.921909 2.610007
N 3.010560 17.681166 8.019744
N 8.288045 13.002441 5.071470
N 8.635700 14.982778 5.528386
N 8.358340 15.157278 2.829579
N 5.105261 18.959862 7.870389
N 3.770827 16.713269 6.815331
N 5.627576 17.663955 8.807322
N 5.795140 17.965188 7.476879
N 10.412398 16.070290 2.278026
N 6.869900 15.620021 5.395634
N 10.360555 15.136185 2.829916
N 9.670416 16.402270 3.529390
N 8.064370 14.313216 3.302324
N 6.878316 17.199825 9.530146
N 8.133792 15.891734 7.917909
N 10.704039 15.281095 3.827160
N 6.217952 20.110827 6.889814
N 9.008741 13.815203 3.531434
N 6.917937 20.015728 7.645540
N 7.271539 13.753140 3.777308
N 3.030753 15.191167 6.968770
N 10.427556 14.128227 2.876101
N 6.374859 18.441893 8.959269
N 8.187068 16.203547 4.602980
N 8.966150 13.958345 6.418775
H 17.820574 9.099323 11.183700
H 17.156030 8.494506 10.718738
H 17.636456 8.211391 11.666346
O 12.110903 3.210289 14.928278
O 12.902151 3.590637 14.293164
O 12.520916 2.668084 14.083991
H 11.643517 14.836985 20.171595
H 10.870664 14.926782 19.470544
H 10.981692 14.022146 20.032838
O 9.873058 4.555557 13.502920
O 10.760076 5.066789 13.685065
O 10.824744 4.033549 13.379284
Na 18.419373 6.578339 16.269967
Na 18.918997 7.275870 16.882056
Na 19.075169 6.287065 17.055665
Cl 16.108686 11.696548 7.028237
Cl 15.709310 10.756204 7.404892
Cl 15.237259 12.215169 7.393588
Cl 15.381642 11.425410 8.091502
N 3.266748 10.565913 12.102780
N 3.684471 10.467132 13.082258
N 2.539289 9.974340 12.662329
N 3.463083 9.523776 12.780283
Mg 6.559723 8.395437 19.102263
Mg 6.806812 8.643742 18.091131
Mg 6.166347 7.623001 18.534485
Mg 5.511180 8.504528 18.567901
Mg 5.994565 9.141333 19.651971
Mg 6.758722 7.224000 17.711596
Mg 7.536959 7.966715 17.834172
Mg 6.388697 7.461476 19.581986
Mg 6.181556 9.254067 18.631172
Mg 5.576686 1.026586 2.267151
Mg 5.091630 1.524447 3.012861
Mg 5.360007 2.035422 2.176026
N 20.724073 14.042928 12.235618
N 20.318142 14.801360 11.658722
N 19.900900 14.452894 12.837213
N 20.481950 15.274597 13.154032
N 0.238616 15.323908 12.270201
S 6.333467 16.655222 1.968870
S 5.400105 16.861874 2.343280
S 5.760558 17.463555 1.502315
O 2.503189 10.389576 18.802247
O 3.519289 10.319077 18.527994
O 3.146165 10.135393 19.529011
Na 1.012731 16.928007 1.037023
Na 1.274518 15.994889 0.732101
Na 0.125835 16.388130 0.995299
Na 0.267513 16.416303 20.668264
Na 0.442388 15.525859 0.406255
C 3.817912 16.607314 12.912880
C 3.704734 15.505751 12.617728
C 3.171626 16.258659 12.129137
C 4.584187 16.089104 12.527073
P 16.103574 10.098598 5.338944
P 15.198153 10.482752 4.913485
P 15.957911 9.061794 5.634904
P 19.352224 11.797619 6.146763
P 17.243235 10.163265 6.372984
P 20.657014 12.463183 6.602013
P 18.114790 11.499654 4.324344
P 15.471003 9.266794 4.704564
P 17.100357 10.527332 5.443139
P 19.605117 12.525596 6.850223
P 20.344091 11.696344 5.902335
P 18.073148 10.111725 5.729860
P 18.159500 10.486801 6.670778
P 18.410543 11.284133 5.995572
P 17.983536 10.888924 5.105243
P 14.571172 9.626271 5.157858
Mg 7.687446 11.760453 14.065687
Mg 6.709024 10.015140 14.980010
Mg 7.811688 9.678974 15.830194
Mg 6.756075 9.886468 16.034550
Mg 6.624733 8.959555 14.816382
Mg 8.128336 7.945539 14.976703
Mg 7.947624 11.214284 14.917045
Mg 6.993679 10.925374 14.549007
Mg 7.809330 7.050304 14.498450
Mg 6.617452 11.706595 14.005243
Mg 7.599506 8.829391 15.301177
Mg 8.885956 7.474592 15.587540
Mg 8.037905 6.945485 15.557830
S 16.437757 12.017426 12.543045
S 17.014726 12.229947 13.800529
S 17.438380 12.227601 12.893559
S 16.598424 12.900651 13.108505
Cl 4.880683 7.457329 7.332115
Cl 5.542071 8.179440 6.920765
Cl 4.211430 8.315306 7.242944
Cl 4.725981 8.077659 6.333517
S 7.872609 17.087002 18.008332
S 8.492725 17.412019 17.286497
S 7.941388 16.231157 17.418815
S 7.724763 17.019041 16.720545
N 19.224056 4.327785 8.114661
N 19.326846 3.275451 8.218569
N 18.366254 3.758072 8.432590
O 2.764151 13.487128 17.906313
O 2.568407 12.730657 18.536286
O 2.906765 13.655622 18.947671
Si 16.181057 17.164796 14.058697
Si 15.819394 16.773218 13.137666
Si 15.301254 17.722149 13.850785
Si 15.818117 17.861581 12.999836
S 8.969987 10.378347 4.594198
S 8.352495 9.825410 5.157934
S 8.065012 10.798164 4.804684
O 3.645810 15.523035 4.988100
O 4.045951 16.794416 4.837329
O 3.175956 16.425172 5.259760
O 4.233647 15.976524 4.277400
Si 3.007819 12.441881 2.502078
Si 2.143417 11.906706 2.149910
Si 2.842046 12.302813 1.435191
N 14.590942 4.816760 3.148799
N 14.214324 3.843709 2.961501
N 15.238216 4.117864 2.704364
Mg 14.370562 14.605286 8.470986
Mg 14.498677 13.573117 8.669625
Mg 13.583831 13.894842 8.269942
Na 17.039514 9.942302 1.129826
Na 16.627637 8.960885 0.167841
Na 16.052963 7.845420 19.299897
Na 16.069623 8.678945 20.088370
Na 16.829717 8.585402 19.321241
Na 14.988161 8.641751 20.033717
Na 15.901616 8.715607 18.718645
Na 16.509031 9.058503 1.254001
Na 17.559669 9.445302 0.329915
Na 14.923673 8.761111 19.003059
C 12.958407 12.781458 15.752251
C 13.602160 13.240496 14.446901
C 12.585299 12.602156 14.785845
C 13.281373 11.884286 14.383825
C 13.195162 13.658390 15.285426
C 13.789966 12.469222 15.076359
N 6.332750 19.171430 2.850854
N 6.440365 20.016884 3.446139
N 6.177078 19.856905 2.033711
N 5.589155 20.131836 2.878634
N 10.301307 17.427544 6.900282
N 10.249456 18.351271 7.362593
N 11.082465 17.790785 7.507872
Cl 7.540273 4.974358 20.274358
Cl 8.364736 5.423227 19.740088
Cl 7.209900 5.759328 19.649200
Cl 7.930524 6.022669 20.423476
Cl 18.362104 1.430682 17.151146
Cl 17.609000 1.903270 16.644794
Cl 18.536357 2.394985 16.769553
Na 14.838154 7.536206 16.326435
Na 15.167052 7.376564 17.304844
Na 14.724443 8.354651 17.318822
Na 13.989719 7.853999 16.809960
Cl 1.153647 3.161117 13.517247
Cl 0.881590 2.663245 14.443198
Cl 1.644784 2.265383 13.840420
Cl 15.292479 2.063315 7.567085
Cl 16.273687 2.156827 7.111346
Cl 15.349642 2.351409 6.585439
S 4.864307 13.970703 12.616777
S 4.858562 14.393621 11.625048
S 5.101375 15.215025 12.292009
S 5.724544 14.577359 12.788423
P 18.275980 4.171586 9.750693
P 18.776984 5.068114 9.635528
P 15.358188 5.876091 11.724560
P 17.707925 4.786297 9.202635
P 16.123015 3.474089 7.918749
P 16.290326 5.615149 10.275705
P 14.444302 5.157519 10.479501
P 16.402757 4.467670 7.998675
P 14.371537 5.585850 11.385150
P 16.673864 4.901383 8.877979
P 16.116014 4.748746 7.038030
P 15.887865 3.708704 6.879183
P 15.912561 5.515466 9.305964
P 15.436123 5.344796 10.769713
P 18.129342 5.720107 9.033037
O 12.632678 8.046992 14.185129
O 12.200597 8.266212 12.924883
O 11.647983 8.262451 13.856666
O 12.510235 8.961594 13.685476
S 17.799577 5.459176 20.375180
S 18.118891 4.870311 0.496265
S 17.778510 5.706026 1.025255
S 17.202022 6.111812 0.209625
P 4.366457 7.413149 14.098664
P 4.517544 7.274371 13.117582
P 4.945812 6.577767 13.762727
Na 19.487823 6.891723 8.757326
Na 19.477168 6.879081 7.681372
Na 20.300304 7.325853 8.254278
H 6.001296 4.478888 9.148796
H 5.846867 2.790735 9.705639
H 5.861651 3.494290 8.884578
H 6.929289 2.919800 9.819119
H 6.888542 3.511443 8.943728
H 7.038790 4.543289 8.984631
H 6.446242 3.130590 8.066558
Mg 11.959663 19.747902 8.914818
Mg 11.126948 20.020696 9.412019
Mg 11.410558 19.042897 9.405734
O 13.741255 13.964530 5.746792
O 14.158566 12.991465 5.454410
O 14.595450 13.938316 5.166080
Na 8.272615 12.080762 7.627341
Na 6.166382 9.916752 8.282277
Na 7.302349 10.863123 8.248725
Na 6.221345 11.932311 7.530557
Na 7.590497 11.562952 7.099385
Na 8.096961 11.126879 6.291116
Na 8.733033 11.921941 6.690046
Na 6.641232 11.440316 6.644487
Na 6.556637 10.940281 7.538022
Na 7.183907 9.882381 8.473860
C 5.642276 5.228565 14.190938
C 6.075368 5.175535 13.182910
C 5.248224 4.557034 13.499930
H 9.474026 10.350604 13.335333
H 10.072610 9.949266 12.571591
H 9.984438 9.860966 14.129309
H 9.726169 9.262711 13.244224
Cl 11.803113 10.366875 16.395304
Cl 12.185472 9.451329 16.041486
Cl 12.425634 9.838752 16.985588
P 2.396371 18.370388 15.823179
P 2.052651 17.712065 16.630052
P 2.535857 17.061497 15.917079
P 1.864044 17.654218 15.317898
H 6.815216 10.471069 19.594990
H 7.022981 9.491725 19.302076
H 7.575184 10.382712 20.314891
H 7.154139 9.442680 20.376384
O 1.695061 12.699663 13.934559
O 0.885952 12.057788 13.978387
O 1.896898 11.697528 13.796953
Mg 2.134401 7.951103 4.586915
Mg 1.460850 8.750851 4.577665
Mg 1.842109 7.752459 5.576102
Mg 1.051263 8.484626 5.523590
Mg 17.993768 2.722709 15.224231
Mg 18.491602 3.167873 16.093182
Mg 19.282575 2.890156 15.462410
Mg 18.734260 3.089198 14.613431
H 2.795844 7.534303 10.385696
H 3.263763 7.788183 9.503552
H 2.902489 6.818894 9.677183
Si 1.629871 9.887255 16.171501
Si 1.001847 10.770998 16.201548
Si 0.266074 10.010775 16.133512
Si 0.891332 9.462405 15.534774
N 20.722197 12.009345 1.730822
N 20.003769 10.105155 1.376195
N 20.305503 12.999069 1.766326
N 20.049033 11.155099 1.756314
N 19.124226 10.690982 1.502188
N 20.433969 10.338172 2.304445
N 0.688672 11.955428 0.973689
N 0.553881 12.843549 1.583501
H 11.571273 14.192716 11.346848
H 10.575543 14.119773 11.596881
H 11.844592 13.292764 11.691972
H 10.767745 13.136437 11.781001
O 5.168200 6.028793 12.795459
O 4.523280 6.510334 12.127153
O 5.264987 7.239359 11.959846
O 5.927437 6.584019 12.447025
O 13.697350 9.416832 11.917572
O 14.456487 9.485579 12.570834
O 13.652565 8.961381 12.915992
P 13.287307 11.986889 8.409883
P 13.311724 10.963022 8.020926
P 13.546767 11.845874 7.448228
Si 18.833754 18.629463 9.563931
Si 18.946244 18.402540 10.599795
Si 18.115885 18.065956 9.994837
O 1.157628 10.757097 11.351810
O 2.079023 11.264775 11.227309
O 1.374808 11.228910 10.461990
O 4.402316 4.580942 17.167345
O 3.463643 4.949201 16.054124
O 4.087421 5.442671 16.742666
O 4.292659 4.356133 16.169541
N 12.202139 3.363026 5.747544
N 12.193466 4.037414 6.518360
N 12.157878 4.402999 5.500872
S 16.418969 16.599798 10.118322
S 15.578094 16.859261 10.750548
S 16.067139 17.587625 10.259989
S 4.736056 11.034133 8.924006
S 4.331720 11.899608 8.483354
S 3.944841 11.539453 7.536483
S 3.989667 10.710451 8.223026
Cl 17.902254 1.992003 6.641809
Cl 17.755894 2.662047 5.802105
Cl 17.021289 1.959621 6.048707
P 12.332748 16.163378 15.129824
P 12.115189 15.959978 16.134937
P 11.481645 16.588969 15.576653
Cl 11.842055 14.344223 15.909024
Cl 12.611767 13.757133 16.203451
Cl 11.749171 13.814618 16.762047
H 12.963162 16.920258 15.457642
H 13.056129 16.950152 16.482589
H 13.123387 16.012581 15.936130
Cl 11.904583 10.961316 4.235668
Cl 11.568957 11.758990 3.683255
Cl 10.451201 9.917771 3.839692
Cl 10.307250 8.601197 3.626405
Cl 10.895989 9.283900 3.187541
Cl 10.853990 10.930678 3.970304
Cl 10.811987 9.093727 4.450335
Cl 10.731515 11.984990 4.200109
Cl 9.856789 9.524279 4.571365
Na 19.223170 3.029759 10.341236
Na 18.680746 2.910234 11.175932
Na 18.179410 3.209503 10.345815
Cl 2.236558 13.945493 0.803523
Cl 1.132030 14.620404 0.015362
Cl 1.706032 15.443094 20.625318
Cl 2.305577 14.990494 0.677695
Cl 2.073693 14.139870 20.482360
H 8.757132 9.610807 9.729562
H 8.319014 8.660609 9.520570
H 9.389385 8.798083 9.683749
Si 7.257093 19.458085 12.744032
Si 7.773005 20.211136 13.185676
Si 8.327047 19.840459 13.961944
Si 8.415312 19.060353 13.245662
Si 8.209700 19.667267 12.379218
Si 12.478522 4.722244 16.891939
Si 11.438558 4.706868 15.746673
Si 11.899734 4.042965 16.434550
Si 12.100480 5.385576 16.215455
Na 11.791719 7.526694 0.333527
Na 11.224388 7.274550 20.178998
Na 10.887516 8.008409 0.062617
C 1.904931 0.477769 6.880205
C 0.834466 0.649834 6.504727
C 1.078141 0.623234 7.527284
C 1.608351 0.370267 5.887429
Na 6.805771 2.379264 16.294347
Na 6.747118 1.352054 15.973097
Na 7.756132 1.140347 16.053643
Na 7.793084 2.218244 15.958973
Mg 19.634104 20.213118 3.327176
Mg 20.091030 1.883025 4.424521
Mg 20.330198 20.298365 2.552581
Mg 0.239940 19.952138 3.355818
Mg 20.438793 1.139145 3.839105
Mg 0.158853 1.999900 3.415142
Mg 20.474683 0.063383 3.633092
Mg 0.351069 2.261370 4.437810
Mg 11.536549 11.560528 7.575228
Mg 10.871929 10.811428 7.357162
Mg 11.084192 11.044349 8.364403
Mg 17.637384 14.020623 7.408365
Mg 18.292843 15.347064 6.752100
Mg 17.331321 14.824163 6.755852
Mg 18.551035 14.621985 7.449450
H 6.500869 18.305698 19.097096
H 6.510117 17.585526 18.307318
H 7.387625 18.007591 18.547644
S 5.741704 15.194044 2.684538
S 4.964138 15.072141 3.378790
S 5.927371 15.161116 3.755048
S 9.715952 3.812836 12.038016
S 9.209749 2.992378 11.656594
S 9.674168 3.615142 10.967394
Cl 2.592240 8.987712 14.784601
Cl 3.523445 8.502764 14.472618
Cl 4.059157 9.203647 15.129622
Cl 3.279665 9.809294 14.823690
N 7.459679 13.648177 7.430995
N 8.253033 13.336883 8.327224
N 7.973279 14.338756 8.076751
N 7.474131 12.793013 8.003763
S 14.637537 19.263861 5.848682
S 15.279440 18.468655 5.500461
S 15.007157 19.272735 4.889677
Si 9.823927 9.345718 18.335450
Si 9.182309 10.191207 18.100258
Si 10.187613 10.264169 18.160054
P 13.090121 17.683154 20.504721
P 12.182981 17.139390 20.707294
P 12.448322 17.386769 19.736804
S 10.508399 4.562546 8.236683
S 10.007526 5.238720 8.782830
S 9.609681 4.940028 7.858898
N 15.333095 1.861981 9.399818
N 14.363936 2.038115 9.813840
N 14.936676 1.156886 10.013835
P 2.658100 19.180696 13.305004
P 2.840439 18.927948 12.348818
P 2.583667 18.219167 13.008056
Mg 9.755360 14.864848 20.229992
Mg 9.788623 15.078503 0.564016
Mg 10.667167 14.862074 20.718317
S 0.225331 0.520988 12.062049
S 0.803224 1.307209 12.550224
S 1.201585 0.809254 11.777075
N 11.512939 12.337109 16.180851
N 10.543604 12.430713 15.793805
N 10.844017 11.490594 16.129091
N 1.223234 20.146817 14.775119
N 1.037259 20.159097 15.800427
N 0.450403 19.554708 15.104054
O 12.349784 16.567482 8.962353
O 11.981005 17.580073 8.914901
O 11.885807 16.295147 8.114180
O 11.200437 17.119416 8.354733
Cl 3.436058 16.344762 1.458964
Cl 2.678391 16.592756 2.160030
Cl 2.452604 15.968986 1.300411
H 2.396397 19.174051 18.713462
H 1.905547 19.027606 19.642990
H 2.150992 18.221807 19.101795
Mg 19.371569 9.141903 11.457188
Mg 20.394677 8.936564 11.803307
Mg 19.629646 8.431230 12.207818
Mg 7.068758 8.092598 9.605328
Mg 6.408908 7.955596 8.825390
Mg 6.021730 7.957859 9.852967
Na 16.338793 18.362586 17.290713
Na 16.807342 19.275989 17.475084
Na 17.145670 18.635870 16.721333
Cl 10.654101 19.785410 13.822304
Cl 11.361773 19.081648 13.928669
Cl 10.168134 18.931581 13.406390
Cl 11.121439 18.786412 12.915299
Si 6.627629 5.762224 7.095031
Si 7.237484 5.402135 6.356868
Si 7.069786 6.418823 6.339268
Mg 2.553374 2.568242 11.744324
Mg 0.874668 4.944705 12.706244
Mg 1.684166 3.153406 11.619291
Mg 2.484340 2.991138 10.785049
Mg 1.821685 3.954223 13.179840
Mg 1.313095 4.786212 11.820082
Mg 1.289024 3.860999 12.249326
Mg 1.466951 3.167121 10.584643
Mg 1.794854 4.998066 13.222616
Mg 18.252924 19.678012 16.396013
Mg 19.233528 20.035932 16.726519
Mg 18.579644 20.571427 16.062241
O 2.203875 11.357260 16.001633
O 2.701217 11.758066 16.868513
O 1.698154 11.941350 16.718866
Cl 13.942772 16.337710 12.486737
Cl 13.009841 15.971403 12.685128
Cl 13.527256 15.413343 11.926654
Cl 13.944700 15.361090 12.840156
Na 1.565713 20.194677 7.892076
Na 2.450967 20.661697 7.633350
Na 2.115230 19.841347 7.047613
Mg 18.258981 0.183399 10.560824
Mg 18.336694 1.178687 10.299271
Mg 17.621928 0.553448 9.747492
Mg 17.403704 1.035092 10.691863
S 8.774844 3.908934 15.694297
S 8.880537 4.368360 14.737809
S 9.216435 3.375004 14.853178
N 13.496560 6.257611 7.960485
N 12.552139 5.882814 7.846859
N 12.690489 6.848298 8.073358
C 19.922543 14.371763 6.282899
C 0.125135 14.024224 6.508704
C 20.628146 15.043485 6.699356
Cl 9.344891 16.721106 19.242720
Cl 9.853854 17.056952 20.041336
Cl 10.402938 16.861058 19.091733
Cl 10.858144 16.699201 20.016459
P 10.469813 19.521844 5.419257
P 11.833293 19.729759 4.713746
P 11.508220 18.425129 6.327506
P 10.714429 19.169196 6.426825
P 12.347169 18.835895 4.574500
P 12.944242 18.545661 5.333618
P 12.933592 18.806161 3.738477
P 11.421200 19.008084 5.404478
P 13.446092 18.250382 4.405657
Na 8.919043 19.986773 5.904706
Na 8.761820 18.904099 5.886940
Na 7.973335 19.430526 6.225630
Na 8.589883 19.979123 6.884948
N 14.446472 5.479429 17.429135
N 14.586682 5.042185 18.386937
N 14.584063 6.106879 18.241137
Na 14.482341 4.475364 19.971679
Na 15.126909 4.214661 19.121421
Na 15.079945 5.201496 19.549744
P 17.778071 11.338055 3.059823
P 18.149331 11.237337 2.097870
P 18.758593 11.508066 2.958796
P 3.162837 0.076533 13.889364
P 2.637071 0.146252 14.756854
P 3.109430 19.994136 14.545604
O 19.215931 13.175232 18.822147
O 18.372852 13.758754 19.073525
O 18.682218 13.743397 18.085700
N 10.413057 5.958921 4.752792
N 10.039639 5.019029 4.765585
N 10.618752 5.428444 5.605120
S 13.240941 9.706787 6.518998
S 14.184031 9.361348 6.473124
S 13.670073 9.814366 5.614896
S 12.728730 11.460364 3.475450
S 13.456960 10.687937 3.214088
S 13.665669 11.751562 3.209093
P 9.213444 3.001706 9.425696
P 8.657408 2.583332 8.577706
P 9.083070 3.584246 8.599332
C 5.652846 17.787186 15.841896
C 5.090829 17.023942 15.445959
C 5.855986 17.417470 14.854533
H 17.035511 3.644936 4.851615
H 16.114312 3.184253 4.316111
H 16.230959 3.158674 5.344509
H 17.120966 2.875532 4.197261
O 3.388407 7.805903 6.024435
O 3.160992 6.766736 5.885336
O 2.555644 7.983998 6.602729
O 2.699582 6.969398 6.807039
Si 3.267249 5.596338 11.203243
Si 3.539163 5.182639 12.085876
Si 4.230115 5.763950 11.511203
P 18.987039 6.373265 13.909430
P 19.210404 6.565044 12.893659
P 18.914976 5.442908 13.508925
P 19.677414 5.621927 12.874997
Si 1.365622 3.865544 6.199770
Si 1.260188 3.104071 6.944509
Si 0.727328 4.668695 6.515967
Si 1.237964 4.138767 7.295197
S 17.712372 6.352772 4.252728
S 18.402527 6.529301 3.431334
S 17.519826 7.135339 3.605530
Si 16.059121 14.515509 17.417018
Si 15.295603 14.511779 16.750846
Si 15.332300 13.743525 17.391997
C 5.983136 11.919824 6.010722
C 6.096018 12.688472 5.306048
C 5.155606 12.509538 5.668372
Mg 16.188964 14.465606 3.521105
Mg 15.360459 14.425153 4.219254
Mg 16.042595 15.243227 4.224414
Cl 12.706458 4.675440 1.844547
Cl 12.349940 4.109572 2.667703
Cl 12.107732 3.822412 1.675761
H 14.498710 10.522473 9.016153
H 13.693245 11.623692 9.815548
H 13.558737 10.950179 9.088358
H 14.710330 11.249969 9.703688
C 6.514811 1.588547 12.980979
C 5.833037 2.053270 12.379229
C 6.675886 1.714483 11.922756
H 0.424804 15.576736 15.131678
H 0.874137 15.598109 14.179529
H 1.073831 14.785126 14.811655
Mg 16.210741 17.263598 7.096199
Mg 16.319158 16.606692 8.289197
Mg 15.534378 16.977341 7.780961
Mg 16.616252 16.287948 7.374419
Na 19.598955 3.962218 6.305123
Na 19.134470 3.051747 5.934318
Na 18.742151 3.583444 6.778315
H 6.167620 13.804627 15.237334
H 5.680317 14.538456 15.854567
H 6.412221 13.220263 16.035921
H 5.771842 13.600708 16.789868
H 6.453255 14.360025 16.578767
Mg 15.497829 16.398786 20.188734
Mg 15.956995 16.677940 0.351653
Mg 15.689265 17.428854 20.372304
Mg 15.684741 17.614780 0.637820
P 5.986422 3.401191 11.208222
P 6.972195 3.058262 11.348868
P 6.701780 3.938690 11.847833
H 16.770445 4.450018 2.179721
H 17.259138 3.603198 1.769256
H 17.917474 4.396254 1.829431
H 17.497791 4.020924 2.743707
H 1.406603 16.435817 6.938216
H 1.068910 16.698048 6.028069
H 1.252924 17.421933 6.753811
N 16.613651 4.384926 0.926329
N 16.068779 5.289624 1.228194
N 15.884548 4.348106 1.620157
N 8.282761 9.980562 12.220449
N 8.497644 9.048108 12.583486
N 9.222748 9.590338 12.062117
Si 4.193932 15.535470 15.060188
Si 4.223373 16.507888 15.545160
Si 3.314590 16.014128 15.457996
O 18.622489 16.867659 15.120257
O 19.308114 17.643991 14.893535
O 18.439936 17.890904 15.432055
S 9.002091 7.320023 8.812744
S 8.522014 8.052581 8.268098
S 8.829303 7.238335 7.740192
O 11.488607 2.066187 8.921692
O 11.617640 1.029703 9.009069
O 11.282087 1.276785 9.991436
O 11.708007 2.230056 9.894151
Mg 13.397338 5.365268 19.021071
Mg 12.405103 5.395915 18.798666
Mg 12.437368 5.820052 19.733531
Mg 13.432443 6.170943 19.656666
P 5.849649 7.996873 1.843540
P 6.844226 7.853507 2.274671
P 6.373352 7.394915 1.106546
P 6.400883 6.979867 2.043889
S 19.297731 13.029414 13.585747
S 18.250527 13.304573 13.425988
S 18.767262 13.454124 14.344632
Si 13.041579 3.267158 11.446933
Si 12.683987 3.906053 10.683733
Si 12.051840 3.479991 11.407799
Cl 0.100912 19.351724 0.799826
Cl 0.856610 20.056296 0.981701
Cl 20.652469 20.110609 1.483016
Cl 20.056673 19.954206 0.579034
Na 1.996277 15.507096 4.914919
Na 2.678353 15.220499 5.623275
Na 1.980236 14.820978 6.287771
Na 1.407931 15.471457 5.754671
Cl 9.311708 10.796023 0.808089
Cl 8.596546 11.351553 0.371084
Cl 8.975855 10.627630 20.517726
S 9.196512 2.017694 16.795141
S 9.419424 1.218113 16.179181
S 9.895990 1.352337 17.084428
Na 8.991593 18.003414 2.650504
Na 8.013446 17.836430 2.817813
Na 8.028487 18.186315 3.846541
Na 9.088754 18.126288 3.799779
Na 8.538589 18.840368 2.964111
Na 9.388227 19.112636 3.577426
C 19.159041 11.634510 11.273456
C 19.957601 11.784024 10.584601
C 20.068259 11.163898 11.406532
H 18.967606 11.006159 9.998803
H 18.639347 10.560477 9.076069
H 18.065395 11.240297 9.546168
Cl 18.417365 8.871231 14.559159
Cl 17.984577 8.871389 15.898020
Cl 18.669743 9.483133 15.308828
Cl 18.569457 8.201494 15.352361
Mg 4.091679 2.722487 17.455262
Mg 3.537286 2.914447 18.269442
Mg 3.055288 2.918550 17.354994
C 5.776791 15.686092 0.135750
C 6.287554 14.922709 20.361883
C 6.549691 15.941008 20.265552
P 3.462177 0.849611 11.182306
P 3.506015 1.051480 10.135687
P 2.550460 0.825267 10.628662
Si 4.436674 10.045269 2.152279
Si 3.455485 9.785714 2.228629
Si 3.774975 10.753153 2.623780
C 1.751762 16.039348 2.462230
C 0.915136 15.429324 2.806453
C 0.849538 15.990558 1.905097
Na 3.385370 11.182160 5.520497
Na 3.106843 12.224262 5.554170
Na 2.415610 11.440973 5.639433
S 17.850404 17.395812 20.243747
S 17.164413 18.229777 20.437812
S 16.983526 17.497016 19.753446
C 12.321132 18.730081 7.753070
C 13.322496 19.130367 7.576756
C 13.029645 18.818025 8.513152
C 2.358819 16.846583 13.342389
C 1.637199 17.159585 12.637227
C 1.642499 17.510870 13.619137
C 17.568606 15.145203 10.504474
C 16.846268 14.737298 11.146333
C 17.774151 14.300580 11.107573
