1024
Lx= 20.726885, Ly= 20.726885, Lz= 20.726885
P 6.995050 6.525124 6.525466
P 2.891266 1.753273 16.803665
P 2.374932 7.500504 19.916869
P 19.340878 2.910757 19.498618
P 9.748004 6.993000 9.279002
P 1.921185 20.463495 8.510503
P 19.480003 3.784498 18.397717
P 4.768714 7.769570 0.671241
P 1.918088 19.956558 6.253781
P 6.770571 7.228045 17.480983
P 19.031781 20.068296 20.304270
P 5.245660 8.097727 4.202620
P 1.073857 19.990006 5.203477
P 1.425719 0.041005 13.015400
P 6.194814 9.280466 20.169556
P 6.624228 3.662964 14.688681
P 3.893107 10.929261 17.245716
P 8.707325 6.627072 3.234713
P 2.138915 16.805184 15.175595
P 18.146447 6.196962 4.203182
P 7.337096 7.054331 7.347703
P 4.887543 10.430571 20.369616
P 1.287218 7.360634 1.008328
P 4.808601 9.446066 0.116053
P 19.739141 2.361427 4.586172
P 4.867171 4.342662 19.729012
P 6.473912 8.035213 16.896486
P 6.870301 4.611867 2.712918
P 10.744588 8.733489 7.299132
P 5.658838 1.855610 15.773325
P 5.248259 9.031682 16.572181
P 5.761179 10.230767 19.904504
P 18.543140 7.092204 3.872317
P 7.989284 8.084324 5.783580
P 7.061245 7.697719 3.987821
P 1.128503 5.087370 1.654738
P 18.590193 20.006983 1.523706
P 1.391249 19.086825 13.745654
P 6.765387 9.600117 17.891053
P 6.651646 9.236595 15.002265
P 8.958886 10.471186 7.881205
P 4.005556 9.637598 14.335031
P 2.395946 7.813165 18.940901
P 4.494778 3.714484 17.919830
P 5.122347 7.468818 18.479464
P 7.088270 8.460831 0.931361
P 4.811882 5.964297 1.596211
P 10.644334 6.724522 8.533866
P 2.113422 2.219801 5.663336
P 20.517659 4.083919 18.530844
P 4.631252 6.846212 1.122391
P 3.842347 18.278628 15.320347
P 0.786857 0.043339 19.015776
P 3.867023 9.064567 13.485704
P 8.099889 7.096545 2.539232
P 9.708524 8.315810 4.903595
P 0.200716 20.586915 5.223369
P 3.755295 6.425041 13.848368
P 4.286996 1.946730 0.912781
P 18.956771 4.720148 3.973289
P 1.267707 2.050019 19.701537
P 0.827748 10.080166 4.223441
P 18.366168 1.740662 0.957501
P 18.560288 0.947088 0.358240
P 7.633096 7.792746 18.834781
P 4.480555 6.802345 2.155556
P 2.475469 0.611063 14.052034
P 8.749233 5.990429 7.896328
P 8.544743 5.054346 8.383087
P 3.056279 0.043866 10.913867
P 8.281792 6.710725 7.335426
P 1.789704 5.321262 3.311786
P 8.969616 7.867621 5.568344
P 6.074220 4.570864 16.041950
P 0.640237 2.384198 0.964823
P 12.517936 8.759402 6.766379
P 0.305954 2.685438 5.346893
P 1.778965 8.913644 17.222767
P 1.232134 5.745805 2.414192
P 2.812087 15.991610 15.182750
P 0.406455 3.193606 18.632578
P 6.952210 3.835537 1.999156
P 8.784381 9.507581 7.382874
P 10.161653 8.892685 6.490561
P 7.574119 9.792016 18.497814
P 2.538865 6.719110 0.690609
P 19.012360 3.156483 0.559418
P 0.898828 1.054803 18.154584
P 0.195723 5.800759 5.666513
P 3.195732 2.563812 3.188558
P 1.741917 6.670675 19.961776
P 5.353958 10.667386 15.025960
P 3.374909 7.723644 4.104059
P 9.030822 8.072299 7.880897
P 3.241455 13.343329 18.062811
P 1.713308 3.649510 20.616731
P 6.738059 10.733416 16.034072
P 0.667767 4.941849 5.978819
P 1.526633 2.091715 1.375102
P 9.765623 10.973760 6.216569
P 20.663089 1.370662 19.482982
P 5.215082 8.396697 14.427266
P 18.842930 20.502731 16.748327
P 18.569833 8.139847 3.579810
P 3.748033 2.821141 0.602113
P 5.166135 4.644847 16.552809
P 11.830517 5.505585 8.022593
P 7.809370 9.137025 7.202282
P 5.450056 8.298219 19.030068
P 10.253479 10.464548 5.474095
P 4.636144 6.970242 13.975193
P 6.043539 3.756443 2.528927
P 2.439699 20.716473 13.259808
P 2.919321 19.751811 10.147122
P 3.553111 10.856781 0.677337
P 4.863261 4.046834 14.716190
P 1.105495 7.264964 4.521575
P 6.093991 7.686520 20.447624
P 6.666151 9.734561 4.716968
P 2.327458 9.926028 19.596079
P 1.527992 0.334203 17.778844
P 12.454386 6.998699 8.096985
P 3.892804 5.538768 14.435024
P 1.694075 9.150478 3.221105
P 6.528685 8.668227 5.341470
P 2.318999 3.011370 2.596625
P 1.569168 8.269017 5.459085
P 8.002064 5.692528 10.565589
P 18.770157 5.679508 3.616024
P 4.078603 9.316324 4.198717
P 18.441722 10.020584 3.398827
P 4.577286 0.820523 16.518740
P 9.748045 7.691485 6.645616
P 4.295149 7.993899 14.809996
P 4.066504 9.891218 16.145703
P 1.937703 0.612921 5.005473
P 1.108722 5.209320 19.287634
P 14.518867 8.249086 8.297816
P 3.403450 14.664133 16.759024
P 0.875530 19.619235 6.212512
P 2.000783 3.698792 19.300663
P 4.420731 0.909530 15.507211
P 5.809078 4.938555 18.311334
P 18.093302 19.892652 3.625825
P 0.757811 8.367969 6.177410
P 2.654688 16.574181 13.626119
P 0.992106 20.210822 3.547421
P 3.537624 8.487021 14.351905
P 2.484187 9.401449 17.752407
P 4.515369 4.267744 20.680078
P 19.940100 6.349451 5.429100
P 3.485284 3.021241 14.696469
P 1.529294 17.893339 17.774587
P 17.176603 9.981948 1.462515
P 2.055332 4.497803 1.238005
P 2.805796 5.650371 3.489771
P 7.446605 8.565007 20.292314
P 19.466200 4.240101 3.178988
P 8.131529 7.543952 19.718647
P 1.844439 4.722383 4.827283
P 7.223505 7.992699 4.993907
P 3.816484 0.175619 14.962986
P 5.125630 9.670345 18.329839
P 5.097667 6.660653 3.438832
P 20.644903 0.826302 20.417195
P 18.577437 0.430700 17.574245
P 17.507704 6.189671 4.976113
P 2.895928 17.207374 12.798979
P 3.057175 18.532305 14.598432
P 4.721554 10.623077 15.897321
P 19.670990 3.091544 17.686883
P 1.977185 6.518656 2.352409
P 4.704086 1.882541 15.453399
P 9.118773 5.635125 9.111767
P 1.872530 0.217958 9.404212
P 6.370842 8.749098 19.268058
P 7.456567 10.313176 4.464729
P 19.708243 7.349425 5.449000
P 2.229682 4.527519 20.214379
P 4.880834 2.194184 13.951232
P 19.774305 19.457460 19.771219
P 5.485339 5.750913 3.140245
P 3.014759 5.961963 1.238310
P 5.063097 5.046041 0.354820
P 3.368944 2.192765 1.286815
P 1.791073 7.445265 1.969663
P 5.270753 6.046448 0.013967
P 9.774797 7.367124 7.626455
P 7.583674 6.981973 18.131692
P 0.004828 19.752190 6.806879
P 6.320675 5.202423 14.737305
P 4.323321 4.139954 1.610276
P 0.108236 1.629062 17.821377
P 4.242165 1.393360 14.007384
P 3.632255 17.273843 13.519840
P 1.578176 6.322185 0.995822
P 4.026918 5.169988 0.247920
P 5.282631 2.802097 15.545593
P 2.609141 1.133221 13.132421
P 2.796514 8.796296 16.982698
P 1.136786 1.240967 4.825763
P 3.108438 8.511906 15.399909
P 19.665243 1.956807 17.219095
P 4.434210 12.024190 20.080921
P 1.370553 0.094642 11.047083
P 0.392458 4.409909 1.703012
P 5.578594 9.449818 1.833976
P 2.252236 8.100662 1.124245
P 8.980121 6.821373 5.645436
P 8.392530 9.702730 0.637197
P 7.945038 6.025857 17.982695
P 18.102728 10.705981 1.786941
P 3.154892 8.070767 18.132125
P 13.898619 4.305842 8.366550
P 6.850736 5.685136 2.909056
P 0.293656 0.915467 5.315330
P 20.532184 2.622057 18.029168
P 12.077163 4.186784 8.682310
P 5.807252 4.193784 15.112988
P 20.004499 20.240954 5.544464
P 8.061059 9.812490 15.764106
P 4.221310 9.123620 3.174749
P 2.544887 8.595489 14.554560
P 8.818465 6.091157 9.961838
P 14.246836 8.117406 7.305323
P 3.188386 20.275426 11.829877
P 8.953895 8.885667 0.257982
P 3.388002 7.837412 16.116125
P 2.591161 4.201276 0.375946
P 0.593513 3.279495 7.719573
P 11.761026 10.188856 5.760982
P 7.441950 8.183226 7.022986
P 0.898462 0.862274 8.487302
P 5.744407 7.975356 17.579813
P 8.294721 10.762457 4.867283
P 5.279091 11.797595 17.200493
P 5.562600 5.006074 19.282216
P 3.714237 7.215369 14.491680
P 2.035471 17.125808 14.192053
P 1.166792 3.056131 19.407434
P 20.135208 1.790832 1.447934
P 18.709789 10.626880 2.582932
P 3.131193 7.783364 17.111557
P 3.389515 19.472036 12.427668
P 1.989068 17.477880 16.963586
P 2.393846 11.601252 4.420958
P 6.203254 12.068840 16.774829
P 4.133497 11.090768 20.577270
P 7.188980 4.980892 10.675095
P 0.049224 7.201597 5.402415
P 1.266093 2.241136 5.055583
P 2.133022 7.592170 4.936693
P 3.556803 2.527173 16.517458
P 4.660086 6.197361 14.740223
P 6.376683 10.612059 17.887903
P 12.235265 9.244358 5.909321
P 3.629610 3.700533 2.220256
P 17.127149 10.991548 1.778318
P 20.375104 8.609475 4.311213
P 6.249848 10.150063 15.261906
P 2.323758 3.581809 7.068860
P 18.484467 2.397823 0.101055
P 1.128736 3.208784 5.852718
P 19.451880 1.135360 20.583432
P 10.545865 7.168511 6.979198
P 18.896476 10.489689 1.135061
P 0.602248 5.592408 18.486041
P 18.839174 20.588972 3.872400
P 0.796571 5.468822 3.339627
P 5.242205 4.401672 17.562036
P 0.809206 1.371997 20.393908
P 7.826386 6.146210 2.735091
P 1.581426 20.173736 7.553837
P 2.934752 15.748723 14.154782
P 18.916406 2.728170 4.120118
P 4.812067 3.367596 1.193397
P 2.823461 18.289446 15.569894
P 0.575283 5.008572 20.175316
P 1.807202 3.685970 5.139751
P 10.306155 7.679090 8.708422
P 1.590881 16.948449 18.233028
P 12.511569 9.097013 4.874853
P 3.438814 4.988560 4.070996
P 10.888713 5.162520 8.386641
P 8.033297 9.431541 8.145482
P 4.845397 7.689336 3.358973
P 8.642484 5.566172 3.013657
P 1.914757 9.218512 5.647242
P 8.128656 9.986634 6.588787
P 7.585366 9.445547 0.022214
P 1.875599 8.378196 2.494231
P 0.309882 9.305620 4.780938
P 20.018948 4.160131 17.590039
P 19.073161 1.696681 4.129677
P 5.196999 5.852539 19.714372
P 2.556015 7.643659 0.241829
P 14.694447 7.224460 6.969014
P 3.008978 9.396062 0.180924
P 5.821535 3.988680 3.557357
P 6.828538 9.066531 16.986813
P 0.904215 9.188275 5.591799
P 4.607892 3.329163 16.078628
P 1.340552 6.308318 4.850961
P 6.337180 6.892978 15.110335
P 18.298900 1.732172 18.402304
P 19.258622 2.284433 1.097866
P 19.626833 19.459098 4.915890
P 19.358935 6.587796 3.515113
P 20.237788 5.065409 19.952877
P 0.236774 20.304497 2.892591
P 5.829729 6.385039 16.254976
P 6.114642 6.382591 3.708745
P 3.830190 12.673986 17.445398
P 5.851336 2.528748 13.692469
P 5.331602 8.421406 1.730830
P 2.259008 17.509102 15.911248
P 4.339547 6.640968 12.971118
P 19.153189 9.789077 4.099671
P 3.491622 1.105453 15.175380
P 2.630274 0.093730 4.423767
P 1.596273 7.459993 20.704165
P 2.939873 4.451153 2.384304
P 5.437684 8.966787 0.813308
P 3.531053 11.199562 16.337298
P 9.923635 6.226768 10.019521
P 3.050899 3.855034 19.224341
P 3.387861 15.653630 16.906587
P 1.374103 2.661433 2.917247
P 7.247549 8.787021 18.694173
P 3.095621 7.141917 18.693088
P 5.330396 6.859279 19.299440
P 5.969571 11.108300 19.383510
P 8.450104 5.900152 11.516479
P 6.876413 5.198618 16.402618
P 5.600532 9.276266 14.844577
P 13.444657 4.345104 9.293537
P 0.340625 7.927642 4.711212
P 1.903913 19.867720 13.170979
P 18.864829 1.406383 17.603942
P 2.292957 9.307785 4.028152
P 13.371086 6.610095 8.228971
P 20.063263 19.557760 0.571759
P 0.109591 4.898911 19.167062
P 2.600593 5.426861 4.563786
P 0.860840 0.406967 2.993186
P 6.376115 9.278797 1.110808
P 1.984073 7.297666 3.914289
P 9.205914 7.002693 10.144424
P 3.483973 1.297793 12.489285
P 7.973098 8.626125 0.488193
P 4.002053 2.676546 15.601335
P 2.243604 20.247383 11.381855
P 1.526702 8.817047 1.500680
P 19.061299 20.160622 0.625049
P 1.257160 3.885796 1.435103
P 7.065935 6.215848 18.576053
P 2.991935 19.303313 9.176418
P 1.699894 11.259213 3.696660
P 4.418933 11.620030 18.866629
P 8.865930 7.895030 4.501581
P 6.177852 6.443501 17.277322
P 3.757505 2.286748 13.640925
P 0.782870 20.463127 6.884530
P 6.549169 8.526480 0.039192
P 2.335570 6.289852 5.087946
P 11.731516 8.530749 7.431349
P 12.911486 4.145952 8.054574
P 2.990950 9.813751 18.737406
P 1.646827 0.270602 19.501443
P 19.700663 0.501432 2.744804
P 10.817479 8.641653 4.939967
P 2.786099 7.070129 5.644965
P 18.220423 2.046878 3.633353
P 1.632305 20.384489 4.361888
P 9.152437 8.535156 6.448962
P 7.767427 10.669507 16.199845
P 18.206593 9.718358 1.216742
P 7.770880 9.982341 3.501810
P 2.657684 2.798065 0.711982
P 18.348079 20.608956 19.640114
P 5.431836 8.023042 16.564059
P 18.997062 20.472109 5.767973
P 5.742796 6.109639 14.704732
P 3.577166 3.843106 0.270982
P 0.306305 19.428556 3.422076
P 20.633879 1.158681 6.279423
P 13.481304 5.260596 7.092981
P 20.168851 11.761141 2.205875
P 7.556689 8.969051 5.429254
P 1.715496 1.208304 8.983787
P 3.186193 15.396262 15.919285
P 2.101083 8.615355 18.386364
P 3.730717 13.839930 17.275825
P 5.182894 11.933996 18.205938
P 3.406617 14.357433 15.708775
P 10.423327 9.397427 5.593546
P 1.037104 11.927538 3.311488
P 8.220791 10.494593 17.170227
P 13.301413 8.542829 7.420046
P 17.518017 10.132417 0.499899
P 4.122608 13.185688 16.555488
P 8.912610 6.899492 4.222166
P 5.902822 5.881141 1.700343
P 5.540727 7.139044 14.448104
P 17.772466 0.732456 19.660705
P 1.986897 2.625580 6.665937
P 0.534078 6.616182 1.125515
P 17.843687 2.152911 19.984019
P 0.976571 2.007774 4.110535
P 2.267772 1.715205 14.071183
P 11.553412 9.325354 5.150297
P 3.110279 7.990375 1.741383
P 7.717781 5.155196 3.058311
P 2.949914 4.720352 18.610635
P 1.038253 5.330882 5.030524
P 4.984950 10.012802 14.321770
P 19.340467 8.772717 4.021523
P 2.418177 19.742359 12.232977
P 18.978691 4.233344 4.914115
P 19.323853 5.896971 2.732842
P 7.054962 10.366681 20.703636
P 4.459395 8.467874 17.026132
P 3.146434 2.321923 5.571429
P 9.002370 10.478033 6.784362
P 0.504195 0.102631 17.914770
P 0.090688 10.733432 3.763474
P 12.783616 4.912895 8.707483
P 6.307573 7.297360 19.488350
P 13.171248 5.600975 8.079495
P 2.488188 19.650551 7.242599
P 2.485986 17.432718 17.892558
P 5.775230 3.073484 14.620897
P 1.755198 2.251552 9.051033
P 1.160528 18.917315 5.417340
P 5.085390 7.135604 16.131240
P 2.154808 19.852959 9.411864
P 17.774102 19.697419 17.914438
P 3.769561 3.089289 19.424411
P 1.800283 1.016787 14.700404
P 1.939334 4.670528 18.878008
P 20.038450 20.603910 0.622076
P 6.897892 8.785253 1.912453
P 18.530320 2.283949 19.214303
P 10.070466 8.406774 7.970839
P 4.167041 3.245886 17.037729
P 17.538773 1.036027 18.652025
P 2.644105 8.897195 2.899262
P 12.372322 8.012746 8.092001
P 3.929493 9.252004 0.655073
P 13.133563 8.731780 8.405804
P 0.906411 17.413866 17.088818
P 0.730116 19.970332 18.403982
P 2.007505 1.226547 1.170300
P 7.881648 7.775583 1.146807
P 7.389612 5.716011 11.356224
P 20.087394 20.347305 2.243176
P 7.189140 6.965376 4.711364
P 2.774928 10.278608 20.445945
P 19.721390 20.366157 19.349712
P 17.641006 0.016937 17.785160
P 0.391545 6.640827 6.270536
P 17.828477 9.262624 2.119372
P 3.689166 9.349068 15.303955
P 4.586981 13.367634 17.513291
P 2.639174 3.051980 5.056806
P 9.453614 6.667213 8.317623
P 7.020439 12.326934 18.348855
P 19.465150 5.430735 5.676857
P 6.133170 5.876080 18.160853
P 5.592883 12.877387 19.512934
P 1.908246 3.386935 3.445616
P 20.481287 5.303859 3.959007
P 1.523923 5.347816 0.734385
P 2.206048 2.071269 13.038663
P 4.031716 4.684766 15.003620
P 5.516055 11.876701 19.895632
P 2.568358 5.218352 1.767744
P 3.367892 7.351745 2.508958
P 1.035185 1.395106 0.696445
P 3.223080 1.747541 14.366744
P 5.979411 4.865983 3.093445
P 11.571790 6.478999 8.250769
P 1.658360 0.123659 5.840036
P 6.040991 12.352096 18.747108
P 0.761615 0.589023 6.196470
P 4.444502 5.957567 3.058634
P 1.317461 1.759561 8.243104
P 1.334258 1.209765 19.073536
P 19.205419 0.761916 3.594942
P 2.570268 19.608023 8.292265
P 2.089460 20.447599 10.306194
P 4.710201 7.615461 17.488741
P 14.164831 7.286287 7.917055
P 19.403556 1.288504 0.850642
P 17.734225 1.255573 20.537828
P 4.322601 3.789305 18.953432
P 7.967687 9.928867 5.505573
P 20.199073 7.133832 3.919866
P 4.471479 4.331508 15.846897
P 7.462538 9.280925 4.264951
P 18.733197 20.131222 17.751325
P 3.368272 8.666958 3.690337
P 5.906074 7.906198 13.802203
P 19.298390 20.456405 4.773607
P 2.987906 20.396065 14.109896
P 5.426600 4.067097 1.762614
P 2.873833 19.480566 6.246798
P 2.265676 9.846434 2.654668
P 4.021537 6.020170 0.845015
P 0.901297 12.922343 3.539360
P 1.167409 8.990480 18.763439
P 2.852451 6.470271 2.840052
P 7.590148 9.715430 16.725289
P 16.743536 0.410205 18.232340
P 9.407464 9.981405 5.941475
P 4.075125 11.783479 17.852235
P 4.533897 7.075190 15.210633
P 18.857451 20.458955 18.701111
P 0.136840 11.511439 3.015253
P 4.386031 5.080085 1.250639
P 7.061369 7.887370 7.923539
P 5.133501 11.761557 0.140484
P 4.004488 8.093280 2.917322
P 2.822734 19.302326 15.259773
P 4.250270 8.279010 4.019029
P 3.037932 0.364013 12.502916
P 1.764757 8.448676 20.502602
P 8.020008 8.479205 4.632890
P 3.672122 1.294307 16.238494
P 3.495350 8.896536 18.629999
P 20.338417 6.223227 4.426215
P 1.273933 4.525716 0.122285
P 6.277186 11.049542 16.978688
P 20.577282 0.299301 19.374162
P 4.461884 3.089080 14.366322
P 20.442853 0.685401 17.628047
P 19.682567 10.973552 2.658164
P 20.296003 5.375295 4.990065
P 7.986227 4.844376 11.342470
P 3.922891 8.617707 1.553427
P 1.710481 17.873851 13.604112
P 9.083971 6.915210 6.681353
P 6.217681 5.667329 15.673604
P 7.305147 6.972161 19.331112
P 7.275416 9.878937 0.914226
P 5.160160 8.781355 17.771975
P 16.776230 9.150269 1.973054
P 4.583896 8.824302 18.688327
P 2.678994 3.031717 4.016801
P 3.362036 10.162004 17.820810
P 1.830428 10.240840 4.040546
P 4.509804 11.357984 16.562628
P 9.700867 7.971215 9.553824
P 9.248007 6.094514 4.871013
P 12.259395 4.002280 7.247329
P 19.587759 19.840450 1.420086
P 18.970666 2.730284 16.940916
P 18.212753 10.019302 4.417923
P 4.656752 9.041133 2.227345
P 3.473484 9.580242 16.995575
P 12.545230 5.005448 7.459402
P 2.145130 8.994768 0.624053
P 10.100404 5.808397 8.695560
P 6.429411 11.450875 18.488430
P 1.319748 3.405647 6.906175
P 7.417135 7.430304 6.311774
P 2.227658 4.362769 3.148940
P 2.967715 11.309713 20.698711
P 8.122960 10.225518 1.522756
P 5.437503 7.061948 0.302715
P 3.367301 2.700619 2.175539
P 1.304876 2.562616 7.521453
P 18.844726 0.558196 1.311028
P 19.152315 3.711931 4.030958
P 16.868226 1.867013 20.303368
P 5.516986 4.965327 1.254367
P 1.594441 3.058887 1.886301
P 18.370719 9.075082 3.041866
P 2.780303 17.848064 13.791376
P 0.961246 8.489592 3.056564
P 1.736431 9.096276 19.656049
P 19.832154 10.368465 3.545989
P 5.578776 10.891375 14.045385
O 9.882779 13.638856 11.044524
O 9.132509 13.043859 10.556608
O 9.784192 12.563206 11.183778
Na 6.421119 14.868223 4.391485
Na 5.407663 13.775263 5.460770
Na 2.288074 13.064833 3.184627
Na 7.427427 14.932383 4.306414
Na 6.195473 13.262773 4.938829
Na 5.939020 14.638478 3.516892
Na 10.805095 12.965350 5.121844
Na 7.174496 13.239299 5.432098
Na 3.796929 15.069180 5.018466
Na 4.004208 16.091700 4.995020
Na 9.010407 12.707290 4.081578
Na 10.438338 12.506910 1.869525
Na 8.833572 12.744088 2.777382
Na 7.486130 13.497839 3.181571
Na 5.243946 13.305953 3.375225
Na 4.756462 14.023809 2.875691
Na 6.881747 13.889345 6.248873
Na 2.823913 14.831261 4.775175
Na 6.009292 13.911131 6.793562
Na 5.765642 14.786836 5.225079
Na 4.703849 12.382356 3.216500
Na 4.761755 14.573225 5.194223
Na 9.202403 12.589792 5.093450
Na 11.099368 13.330796 1.845670
Na 8.899903 11.763191 3.757635
Na 7.031244 12.677280 3.652717
Na 11.123506 11.682722 1.777031
Na 5.118810 13.091979 4.735692
Na 4.053362 13.257014 3.197854
Na 10.893049 10.663546 1.473283
Na 12.010628 11.728940 2.262194
Na 10.499642 11.862666 2.797750
Na 3.379044 14.023661 4.519486
Na 7.876162 12.559617 2.422676
Na 10.124345 11.222031 1.051896
Na 7.907728 12.520073 5.254620
Na 9.951077 11.993555 3.641741
Na 10.083085 12.519693 4.591008
Na 6.873034 14.269236 3.643798
Na 9.056261 11.299170 2.594976
Na 8.641822 13.537509 3.473803
Na 7.738025 12.067487 4.135217
Na 7.366647 14.848029 6.063496
Na 8.133006 13.587714 2.415377
Na 3.144574 13.583835 3.543705
Na 11.308002 12.434642 2.428677
Na 2.563533 12.775549 4.124778
Na 4.255346 13.735495 4.932619
Na 6.283368 14.698150 6.097965
Na 9.474138 12.200549 2.156470
Na 7.925305 13.115816 4.399207
Na 6.118333 12.991408 3.922879
Na 9.957044 11.265103 2.063536
P 14.692161 12.054578 13.946347
P 14.156325 12.899452 13.885892
P 13.908361 12.069271 13.307511
Si 6.933636 0.929268 10.696042
Si 6.661159 0.015902 10.999728
Si 6.256050 0.839467 11.493564
Si 17.871629 11.809531 7.751413
Si 18.466844 11.214615 7.069628
Si 18.176225 10.775210 7.940618
O 10.426044 6.261481 0.554692
O 10.240828 7.335089 0.519544
O 11.248577 6.931912 0.399782
Na 19.197132 15.754138 3.502320
Na 18.552944 14.941564 3.257595
Na 18.405364 15.565492 4.123628
Si 13.494744 16.939448 0.205345
Si 14.120053 17.822707 0.402071
Si 14.235505 17.249667 20.257932
Na 9.847984 7.346976 15.936029
Na 10.350537 6.654147 15.321406
Na 10.351349 6.575828 16.342974
Cl 2.174607 18.844654 20.204114
Cl 2.383933 18.975117 0.465377
Cl 2.938639 18.348483 20.630833
Mg 8.074984 15.842144 0.865524
Mg 7.449063 15.687507 0.069095
Mg 7.016912 16.121301 0.891556
P 9.135563 2.306702 16.692695
P 10.041231 2.652485 16.189769
P 9.102170 3.004302 15.917153
Si 19.440389 2.812221 5.607385
Si 19.560892 3.159460 6.621694
Si 18.821152 3.575834 5.973976
H 20.401988 14.579488 10.902069
H 0.675481 14.692897 10.668172
H 20.674814 15.236155 10.167891
Mg 16.973506 14.950488 8.720594
Mg 17.073180 15.102953 9.768516
Mg 17.250337 15.860466 9.090700
Na 18.027880 15.630936 15.434667
Na 16.996229 15.602648 15.719864
Na 17.381548 15.089115 14.882331
Si 14.763841 2.460003 18.326062
Si 15.251964 1.534242 18.048482
Si 15.152922 2.279376 17.381493
Na 0.238864 6.034712 15.368766
Na 20.679166 5.377335 14.583135
Na 0.703676 5.081903 15.300462
Na 8.509671 12.783845 15.303453
Na 9.336121 12.117281 15.051600
Na 9.452755 13.118004 15.278096
C 16.582332 10.863226 5.682029
C 16.662531 11.143558 4.719296
C 16.548680 11.877994 5.482589
Si 3.496003 11.244613 8.028644
Si 3.027391 11.032783 7.120350
Si 3.239546 10.293423 7.850029
N 5.111478 14.703146 20.363172
N 5.536326 13.746508 20.685500
N 5.824584 14.249472 19.778494
P 7.686811 19.569673 3.431034
P 7.704646 19.845367 2.428727
P 8.282709 20.412552 3.058044
N 7.098993 16.877602 12.309299
N 6.904578 17.859447 12.727089
N 7.166145 16.969342 13.305061
P 14.332265 19.608556 15.091678
P 14.127468 18.951056 14.354706
P 14.742440 18.699128 15.168959
Mg 15.670735 17.787198 17.931968
Mg 15.253225 18.586129 18.478349
Mg 14.710138 17.709325 18.447012
C 12.734684 16.562433 1.424653
C 12.025562 15.777286 1.269378
C 12.746262 15.701547 1.995683
Si 5.631283 10.048220 9.637511
Si 4.982459 9.579263 10.275013
Si 5.438982 9.062179 9.548247
Cl 2.503626 20.494546 2.243690
Cl 2.841597 0.769147 2.403888
Cl 1.844556 0.530618 2.506890
H 14.887383 11.487080 3.984234
H 15.927074 11.614666 4.044855
H 15.533053 11.256305 3.165694
Si 14.997222 4.877778 15.028644
Si 15.349390 4.147830 14.383538
Si 14.527310 4.678392 14.099716
Si 5.040796 18.068327 1.366453
Si 5.479348 18.591612 0.525152
Si 4.450741 18.420835 0.511862
Na 5.903948 17.291150 17.424812
Na 6.883112 16.920049 17.179422
Na 6.505737 16.641586 18.064618
Mg 18.660251 12.223504 14.589184
Mg 17.938014 12.129855 15.398420
Mg 18.929841 12.068959 15.638894
N 18.773649 3.627434 12.545598
N 18.006953 3.582485 13.237101
N 18.957514 3.562562 13.577667
N 5.188631 1.669089 3.003407
N 6.158339 2.058731 3.216499
N 5.874725 1.100149 3.483967
Si 5.350732 4.218790 6.552964
Si 4.482115 4.225558 5.885656
Si 5.212872 3.444472 5.796225
Cl 4.681123 2.556846 19.422198
Cl 5.421381 1.944977 18.977427
Cl 4.474479 1.620455 19.127289
H 10.790041 0.908886 1.837539
H 11.873546 1.026498 1.794365
H 11.194133 1.836286 1.530409
Cl 11.523987 12.967000 7.614627
Cl 11.455576 12.975328 8.667709
Cl 10.849116 13.634833 8.104155
H 1.628091 8.772665 13.673161
H 2.230807 9.402305 13.170407
H 1.547514 9.816885 13.819462
O 16.534836 17.753603 11.757372
O 15.780259 17.052028 11.701269
O 16.549740 17.000047 12.443654
N 7.159677 2.271785 18.052496
N 7.084878 3.300684 18.023569
N 6.749777 2.806073 18.857706
O 14.337875 19.570922 12.125907
O 14.554462 19.705743 11.153878
O 13.588504 19.847067 11.437484
Mg 14.134987 18.904159 7.768599
Mg 15.171544 18.970107 7.725466
Mg 14.709177 18.563641 6.927361
P 15.030906 14.482687 3.604818
P 15.553446 14.643834 4.494799
P 16.072368 14.636252 3.545518
P 17.576661 4.535481 7.658799
P 16.744134 5.177827 7.718396
P 16.612579 4.112950 7.783865
C 11.817651 4.957356 13.548286
C 11.237551 5.033997 14.397666
C 11.606569 4.124781 14.171135
Cl 2.188598 18.183967 2.200240
Cl 2.881749 17.664304 2.772907
Cl 2.707178 17.424705 1.733224
Na 13.229230 2.423830 4.405127
Na 13.917155 3.126623 4.658056
Na 13.316007 2.696602 5.455654
Cl 12.340121 0.665227 0.058192
Cl 12.860480 20.538827 20.552145
Cl 11.937661 20.482238 0.272507
C 11.864497 18.890025 7.463936
C 12.670053 19.083943 6.812105
C 12.690006 19.523384 7.783173
Si 10.757548 19.487055 11.341450
Si 10.347948 18.526976 11.262362
Si 9.733332 19.380375 11.522494
O 19.171136 13.592204 19.912071
O 19.876798 12.835087 20.013084
O 19.406074 12.994242 19.115068
H 15.036247 8.740571 17.507556
H 15.926965 8.532675 16.941878
H 15.316890 7.715544 17.351838
Mg 13.542796 19.018729 0.797364
Mg 12.501636 19.357544 0.890815
Mg 12.769174 18.328105 0.845707
S 0.356981 6.673901 17.485403
S 0.890216 7.521195 17.887871
S 20.615678 7.588687 17.810374
Na 1.927206 7.201352 11.866328
Na 2.076848 7.277180 12.893906
Na 2.720224 6.742125 12.269110
Si 7.909824 5.229547 7.525813
Si 7.563976 5.290820 6.521957
Si 8.592214 5.279393 6.750316
H 3.668229 12.279925 9.133781
H 3.945789 13.110975 9.635525
H 3.733231 13.123509 8.584347
O 14.586002 3.064916 15.601574
O 14.285410 2.435322 14.779489
O 15.236958 2.414158 15.120905
Mg 0.103020 13.409338 2.816308
Mg 0.396717 14.222216 3.343197
Mg 0.729303 14.072354 2.374100
C 11.523169 0.072223 15.868217
C 11.085223 19.841099 16.023431
C 10.829066 20.666095 16.632481
S 17.185655 6.736013 18.438407
S 17.177382 6.525357 19.474403
S 17.059008 5.766757 18.828453
S 10.833070 17.741814 20.158095
S 10.422544 17.236121 19.355438
S 11.017209 18.124674 19.176465
Mg 5.302411 9.882683 2.921321
Mg 6.351494 9.775430 2.937260
Mg 5.929504 10.715284 2.917161
P 16.603084 19.647768 15.238951
P 17.411763 18.946696 15.087361
P 16.356187 18.638476 15.089419
Cl 12.991086 19.624538 16.030551
Cl 12.646073 20.428611 16.656701
Cl 12.071091 19.519978 16.529698
Na 20.526711 10.855364 15.927606
Na 0.659508 10.425943 16.258817
Na 20.438099 9.950205 16.444308
C 11.730643 15.131543 19.512771
C 11.400624 16.075814 19.225334
C 11.442935 15.388576 18.499274
Si 3.469811 14.551841 11.228847
Si 3.990151 14.779555 10.370751
Si 2.912519 14.699455 10.297169
P 8.305774 17.606543 5.929118
P 7.485394 18.084860 6.432708
P 8.422041 18.596704 6.361358
H 5.936343 13.237280 11.125508
H 6.459151 12.361521 10.938749
H 5.465167 12.261098 11.153033
H 8.142082 20.444267 12.198979
H 8.780363 19.705984 11.931952
H 7.852331 19.411488 12.284735
Cl 11.940757 8.280979 10.287611
Cl 11.961093 8.846745 9.414420
Cl 12.821938 8.325530 9.780858
S 10.200195 13.847532 17.906099
S 9.434483 13.216933 17.713022
S 9.807006 13.834049 16.921686
Na 2.248346 16.454306 6.076549
Na 1.344076 15.873175 6.030132
Na 1.781896 16.239030 5.174687
Cl 0.098662 9.704251 13.626592
Cl 0.058075 10.741305 13.818080
Cl 20.565656 10.109407 14.587457
Mg 10.868226 11.055374 10.906442
Mg 11.209856 11.839898 10.351764
Mg 10.712793 11.078984 9.857136
Cl 13.547754 10.992116 12.828069
Cl 12.699183 11.589316 13.058061
Cl 13.291444 11.670548 12.135821
Cl 13.180279 12.417080 17.026312
Cl 12.472784 13.040587 16.569863
Cl 13.081602 13.438356 17.292359
C 11.412463 6.697495 11.997322
C 11.257493 6.174685 11.059363
C 11.499588 5.622543 11.911319
Cl 6.512099 16.895646 10.120761
Cl 5.925550 16.645068 10.900503
Cl 6.723744 16.001451 10.565838
Cl 6.932225 16.885280 11.053625
H 8.157374 3.549348 12.097521
H 9.024106 3.457051 12.663204
H 8.794766 4.332572 12.151356
Na 15.463525 8.662696 11.040216
Na 14.522770 8.273268 10.867176
Na 14.913025 8.499678 11.867307
Mg 9.437600 16.892116 3.455490
Mg 10.404171 16.451986 3.240856
Mg 9.510591 16.166140 2.708686
Cl 4.437121 15.023854 18.545970
Cl 3.738761 15.510246 19.201660
Cl 3.499447 14.667241 18.566243
P 0.843065 12.770497 14.164141
P 1.251108 13.506593 13.573954
P 0.973575 13.712030 14.515313
P 19.988876 12.557177 10.118009
P 19.003964 12.236513 10.327213
P 19.828890 11.643848 10.687430
Cl 12.028743 7.958539 4.711696
Cl 12.788650 7.244343 4.517801
Cl 12.253558 7.625095 3.692443
Na 11.480929 7.874532 14.235987
Na 10.501909 7.692425 14.002577
Na 10.862615 7.590230 15.005010
N 9.073130 1.040383 4.955879
N 9.688289 1.679798 4.350143
N 10.156077 1.073061 5.047290
H 18.318702 17.077442 16.362608
H 18.296018 17.949353 15.823047
H 17.479177 17.337090 15.743166
Na 14.735036 17.187488 15.521164
Na 15.226460 16.302635 15.310943
Na 14.722962 16.849670 14.573993
C 3.243604 18.424137 9.894822
C 3.577634 18.833313 10.778390
C 4.022387 17.918621 10.429964
O 7.928841 1.965321 0.458837
O 8.041171 2.635672 20.351813
O 7.494563 1.808366 20.208513
P 5.005142 14.156095 6.926698
P 5.043983 13.255186 7.366023
P 4.659726 14.039458 7.891106
Na 19.088409 13.608547 1.642082
Na 18.947517 13.284147 2.652228
Na 19.702792 12.884556 2.026389
Si 12.960413 17.278274 8.473902
Si 13.463862 17.620936 9.321544
Si 12.459494 17.897783 9.156371
P 17.086836 12.639894 18.677877
P 16.155280 13.078627 18.539861
P 16.973828 13.662501 18.768290
Si 8.717860 9.077477 11.555991
Si 8.506542 8.046739 11.325864
Si 9.460350 8.298781 11.510228
C 12.180882 5.904889 20.487112
C 13.038854 6.528234 20.503129
C 12.886135 5.852160 0.506024
N 17.963959 7.947498 6.014999
N 18.517504 8.732480 6.373424
N 18.677512 7.732758 6.777460
S 10.259937 15.956352 16.731256
S 9.785200 16.846229 16.841399
S 10.581936 16.590499 17.460481
S 14.961259 17.659474 10.263895
S 14.005499 17.430441 10.723479
S 14.049583 18.143586 9.998929
Na 14.135863 12.610170 19.701323
Na 14.353256 13.369025 19.019961
Na 14.684246 12.356311 18.822640
S 0.122140 19.297857 17.482842
S 0.551935 18.533320 16.835198
S 20.423583 18.336162 17.442928
H 16.695611 14.058851 2.207146
H 17.331410 14.760610 2.630998
H 16.953800 14.894022 1.647815
Cl 13.097556 1.491936 14.734421
Cl 12.912967 0.757754 15.461515
Cl 13.019490 0.490239 14.404598
P 13.953158 14.179773 18.321795
P 13.157774 14.911916 18.327497
P 12.950930 13.939339 18.526046
Mg 11.825740 10.374613 10.139035
Mg 11.829172 10.447282 9.064716
Mg 11.051015 9.950515 9.585209
O 17.710048 8.976297 15.266024
O 18.739130 9.280435 15.331368
O 17.980872 9.933129 15.440073
S 11.468777 5.727464 5.562880
S 10.979803 6.646207 5.792317
S 11.302391 5.996675 6.512786
Mg 6.433927 19.480892 10.813956
Mg 6.760507 18.516749 11.129325
Mg 6.779773 19.275647 11.786443
H 12.853321 12.921829 11.608167
H 11.937947 13.051731 11.173951
H 12.759132 13.681682 10.884094
Si 5.435049 18.029929 6.252170
Si 5.813515 17.265005 6.898534
Si 6.453648 17.688950 6.187067
P 19.033883 1.271664 5.898981
P 18.123506 1.759935 6.134393
P 18.386486 1.688355 5.170759
S 19.015393 4.307464 9.061886
S 19.055486 5.067489 8.327006
S 18.355172 5.098910 9.043570
Si 1.229334 13.294022 9.349928
Si 1.854184 14.159782 9.305718
Si 2.293877 13.251999 9.356568
Mg 15.813614 7.342841 1.607064
Mg 16.485043 6.833951 0.949826
Mg 16.357487 6.565462 1.984362
Mg 16.299915 6.687822 14.778699
Mg 15.523069 7.213600 15.324466
Mg 16.523987 7.537197 15.375758
P 13.226043 16.322205 5.045486
P 13.024449 17.359459 4.894682
P 13.574582 17.002225 5.728184
N 15.051491 5.897438 18.279621
N 14.228921 5.230953 17.994408
N 15.291560 4.990282 17.905192
Na 13.577444 11.297452 5.464584
Na 13.059688 11.220247 4.515240
Na 14.083847 10.860740 4.671998
H 5.204293 14.252037 14.468054
H 4.856874 15.148448 14.169351
H 5.769870 15.086994 14.765744
Mg 18.096400 8.778710 9.930277
Mg 18.704971 8.231192 9.197689
Mg 18.755128 8.069692 10.221414
Si 13.602920 5.954432 14.687329
Si 12.611373 6.126504 14.658151
Si 13.216556 6.937881 14.815180
O 15.853515 2.211808 12.632563
O 16.096021 3.161474 13.001244
O 15.632364 3.016584 12.078179
P 10.780149 11.428412 15.597843
P 10.697810 10.425600 15.464152
P 11.267926 10.927045 14.783889
S 4.653675 6.287305 7.863855
S 5.203780 7.151326 7.503769
S 5.159492 6.282271 6.961937
