325
frame = 0, Lx= 20.726885, Ly= 20.726885, Lz= 20.726885
C 1.529294 17.893339 17.774587
C 0.906411 17.413866 17.088818
C 1.989068 17.477880 16.963586
C 2.259008 17.509102 15.911248
C 2.138915 16.805184 15.175595
C 2.812087 15.991610 15.182750
C 3.186193 15.396262 15.919285
C 3.406617 14.357433 15.708775
C 3.403450 14.664133 16.759024
C 3.730717 13.839930 17.275825
C 3.241455 13.343329 18.062811
C 3.830190 12.673986 17.445398
C 4.075125 11.783479 17.852235
C 3.893107 10.929261 17.245716
C 3.362036 10.162004 17.820810
C 2.990950 9.813751 18.737406
C 3.495350 8.896536 18.629999
C 4.583896 8.824302 18.688327
C 5.450056 8.298219 19.030068
C 5.122347 7.468818 18.479464
C 5.330396 6.859279 19.299440
C 5.196999 5.852539 19.714372
C 5.270753 6.046448 0.013967
C 5.063097 5.046041 0.354820
C 5.516986 4.965327 1.254367
C 5.426600 4.067097 1.762614
C 6.043539 3.756443 2.528927
C 6.952210 3.835537 1.999156
C 6.870301 4.611867 2.712918
C 7.717781 5.155196 3.058311
C 6.850736 5.685136 2.909056
C 7.826386 6.146210 2.735091
C 8.099889 7.096545 2.539232
C 8.707325 6.627072 3.234713
C 8.912610 6.899492 4.222166
C 9.248007 6.094514 4.871013
C 8.980121 6.821373 5.645436
C 9.083971 6.915210 6.681353
C 8.281792 6.710725 7.335426
C 8.749233 5.990429 7.896328
C 8.544743 5.054346 8.383087
C 9.118773 5.635125 9.111767
C 10.100404 5.808397 8.695560
C 10.888713 5.162520 8.386641
C 11.830517 5.505585 8.022593
C 12.545230 5.005448 7.459402
C 12.259395 4.002280 7.247329
C 12.911486 4.145952 8.054574
C 13.898619 4.305842 8.366550
O 9.882779 13.638856 11.044524
O 9.132509 13.043859 10.556608
H 10.805095 12.965350 5.121844
H 10.083085 12.519693 4.591008
H 9.202403 12.589792 5.093450
H 9.010407 12.707290 4.081578
H 8.641822 13.537509 3.473803
H 8.833572 12.744088 2.777382
H 7.876162 12.559617 2.422676
H 8.133006 13.587714 2.415377
H 7.486130 13.497839 3.181571
H 7.031244 12.677280 3.652717
H 6.118333 12.991408 3.922879
H 5.243946 13.305953 3.375225
H 4.703849 12.382356 3.216500
H 4.053362 13.257014 3.197854
H 3.144574 13.583835 3.543705
H 2.288074 13.064833 3.184627
H 2.563533 12.775549 4.124778
S 14.692161 12.054578 13.946347
S 14.156325 12.899452 13.885892
N 6.933636 0.929268 10.696042
N 6.661159 0.015902 10.999728
C 17.871629 11.809531 7.751413
C 18.466844 11.214615 7.069628
O 10.426044 6.261481 0.554692
O 10.240828 7.335089 0.519544
H 19.197132 15.754138 3.502320
H 18.552944 14.941564 3.257595
S 13.494744 16.939448 0.205345
S 14.120053 17.822707 0.402071
N 9.847984 7.346976 15.936029
N 10.350537 6.654147 15.321406
C 2.174607 18.844654 20.204114
C 2.383933 18.975117 0.465377
O 8.074984 15.842144 0.865524
O 7.449063 15.687507 0.069095
H 9.135563 2.306702 16.692695
H 10.041231 2.652485 16.189769
S 19.440389 2.812221 5.607385
S 19.560892 3.159460 6.621694
N 20.401988 14.579488 10.902069
N 0.675481 14.692897 10.668172
C 16.973506 14.950488 8.720594
C 17.073180 15.102953 9.768516
O 18.027880 15.630936 15.434667
O 16.996229 15.602648 15.719864
H 14.763841 2.460003 18.326062
H 15.251964 1.534242 18.048482
S 0.238864 6.034712 15.368766
S 20.679166 5.377335 14.583135
N 8.509671 12.783845 15.303453
N 9.336121 12.117281 15.051600
C 16.582332 10.863226 5.682029
C 16.662531 11.143558 4.719296
O 3.496003 11.244613 8.028644
O 3.027391 11.032783 7.120350
H 5.111478 14.703146 20.363172
H 5.536326 13.746508 20.685500
S 7.686811 19.569673 3.431034
S 7.704646 19.845367 2.428727
N 7.098993 16.877602 12.309299
N 6.904578 17.859447 12.727089
C 14.332265 19.608556 15.091678
C 14.127468 18.951056 14.354706
O 15.670735 17.787198 17.931968
O 15.253225 18.586129 18.478349
H 12.734684 16.562433 1.424653
H 12.025562 15.777286 1.269378
S 5.631283 10.048220 9.637511
S 4.982459 9.579263 10.275013
N 2.503626 20.494546 2.243690
N 2.841597 0.769147 2.403888
C 14.887383 11.487080 3.984234
C 15.927074 11.614666 4.044855
O 14.997222 4.877778 15.028644
O 15.349390 4.147830 14.383538
H 5.040796 18.068327 1.366453
H 5.479348 18.591612 0.525152
S 5.903948 17.291150 17.424812
S 6.883112 16.920049 17.179422
N 18.660251 12.223504 14.589184
N 17.938014 12.129855 15.398420
C 18.773649 3.627434 12.545598
C 18.006953 3.582485 13.237101
O 5.188631 1.669089 3.003407
O 6.158339 2.058731 3.216499
H 5.350732 4.218790 6.552964
H 4.482115 4.225558 5.885656
S 4.681123 2.556846 19.422198
S 5.421381 1.944977 18.977427
N 10.790041 0.908886 1.837539
N 11.873546 1.026498 1.794365
C 11.523987 12.967000 7.614627
C 11.455576 12.975328 8.667709
O 1.628091 8.772665 13.673161
O 2.230807 9.402305 13.170407
H 16.534836 17.753603 11.757372
H 15.780259 17.052028 11.701269
S 7.159677 2.271785 18.052496
S 7.084878 3.300684 18.023569
N 14.337875 19.570922 12.125907
N 14.554462 19.705743 11.153878
C 14.134987 18.904159 7.768599
C 15.171544 18.970107 7.725466
O 15.030906 14.482687 3.604818
O 15.553446 14.643834 4.494799
H 17.576661 4.535481 7.658799
H 16.744134 5.177827 7.718396
S 11.817651 4.957356 13.548286
S 11.237551 5.033997 14.397666
N 2.188598 18.183967 2.200240
N 2.881749 17.664304 2.772907
C 13.229230 2.423830 4.405127
C 13.917155 3.126623 4.658056
O 12.340121 0.665227 0.058192
O 12.860480 20.538827 20.552145
H 11.864497 18.890025 7.463936
H 12.670053 19.083943 6.812105
S 10.757548 19.487055 11.341450
S 10.347948 18.526976 11.262362
N 19.171136 13.592204 19.912071
N 19.876798 12.835087 20.013084
C 15.036247 8.740571 17.507556
C 15.926965 8.532675 16.941878
O 13.542796 19.018729 0.797364
O 12.501636 19.357544 0.890815
H 0.356981 6.673901 17.485403
H 0.890216 7.521195 17.887871
S 1.927206 7.201352 11.866328
S 2.076848 7.277180 12.893906
N 7.909824 5.229547 7.525813
N 7.563976 5.290820 6.521957
C 3.668229 12.279925 9.133781
C 3.945789 13.110975 9.635525
O 14.586002 3.064916 15.601574
O 14.285410 2.435322 14.779489
H 0.103020 13.409338 2.816308
H 0.396717 14.222216 3.343197
S 11.523169 0.072223 15.868217
S 11.085223 19.841099 16.023431
N 17.185655 6.736013 18.438407
N 17.177382 6.525357 19.474403
C 10.833070 17.741814 20.158095
C 10.422544 17.236121 19.355438
O 5.302411 9.882683 2.921321
O 6.351494 9.775430 2.937260
H 16.603084 19.647768 15.238951
H 17.411763 18.946696 15.087361
S 12.991086 19.624538 16.030551
S 12.646073 20.428611 16.656701
N 20.526711 10.855364 15.927606
N 0.659508 10.425943 16.258817
C 11.730643 15.131543 19.512771
C 11.400624 16.075814 19.225334
O 3.469811 14.551841 11.228847
O 3.990151 14.779555 10.370751
H 8.305774 17.606543 5.929118
H 7.485394 18.084860 6.432708
S 5.936343 13.237280 11.125508
S 6.459151 12.361521 10.938749
N 8.142082 20.444267 12.198979
N 8.780363 19.705984 11.931952
C 11.940757 8.280979 10.287611
C 11.961093 8.846745 9.414420
O 10.200195 13.847532 17.906099
O 9.434483 13.216933 17.713022
H 2.248346 16.454306 6.076549
H 1.344076 15.873175 6.030132
S 0.098662 9.704251 13.626592
S 0.058075 10.741305 13.818080
N 10.868226 11.055374 10.906442
N 11.209856 11.839898 10.351764
C 13.547754 10.992116 12.828069
C 12.699183 11.589316 13.058061
O 13.180279 12.417080 17.026312
O 12.472784 13.040587 16.569863
H 11.412463 6.697495 11.997322
H 11.257493 6.174685 11.059363
S 6.512099 16.895646 10.120761
S 6.723744 16.001451 10.565838
S 5.925550 16.645068 10.900503
N 8.157374 3.549348 12.097521
N 9.024106 3.457051 12.663204
C 15.463525 8.662696 11.040216
C 14.522770 8.273268 10.867176
O 9.437600 16.892116 3.455490
O 10.404171 16.451986 3.240856
H 4.437121 15.023854 18.545970
H 3.738761 15.510246 19.201660
S 0.843065 12.770497 14.164141
S 1.251108 13.506593 13.573954
N 19.988876 12.557177 10.118009
N 19.003964 12.236513 10.327213
C 12.028743 7.958539 4.711696
C 12.788650 7.244343 4.517801
O 11.480929 7.874532 14.235987
O 10.501909 7.692425 14.002577
H 9.073130 1.040383 4.955879
H 9.688289 1.679798 4.350143
S 18.318702 17.077442 16.362608
S 18.296018 17.949353 15.823047
N 14.735036 17.187488 15.521164
N 15.226460 16.302635 15.310943
C 3.243604 18.424137 9.894822
C 3.577634 18.833313 10.778390
O 7.928841 1.965321 0.458837
O 8.041171 2.635672 20.351813
H 5.005142 14.156095 6.926698
H 5.043983 13.255186 7.366023
S 19.088409 13.608547 1.642082
S 18.947517 13.284147 2.652228
N 12.960413 17.278274 8.473902
N 13.463862 17.620936 9.321544
C 17.086836 12.639894 18.677877
C 16.155280 13.078627 18.539861
O 8.717860 9.077477 11.555991
O 8.506542 8.046739 11.325864
H 12.180882 5.904889 20.487112
H 13.038854 6.528234 20.503129
S 17.963959 7.947498 6.014999
S 18.517504 8.732480 6.373424
N 10.259937 15.956352 16.731256
N 9.785200 16.846229 16.841399
C 14.961259 17.659474 10.263895
C 14.005499 17.430441 10.723479
O 14.135863 12.610170 19.701323
O 14.353256 13.369025 19.019961
H 0.122140 19.297857 17.482842
H 0.551935 18.533320 16.835198
S 16.695611 14.058851 2.207146
S 17.331410 14.760610 2.630998
N 13.097556 1.491936 14.734421
N 12.912967 0.757754 15.461515
C 13.953158 14.179773 18.321795
C 13.157774 14.911916 18.327497
O 11.825740 10.374613 10.139035
O 11.829172 10.447282 9.064716
H 17.710048 8.976297 15.266024
H 18.739130 9.280435 15.331368
S 11.468777 5.727464 5.562880
S 10.979803 6.646207 5.792317
N 6.433927 19.480892 10.813956
N 6.760507 18.516749 11.129325
C 12.853321 12.921829 11.608167
C 11.937947 13.051731 11.173951
O 5.435049 18.029929 6.252170
O 5.813515 17.265005 6.898534
H 19.033883 1.271664 5.898981
H 18.123506 1.759935 6.134393
S 19.015393 4.307464 9.061886
S 19.055486 5.067489 8.327006
N 1.229334 13.294022 9.349928
N 1.854184 14.159782 9.305718
C 15.813614 7.342841 1.607064
C 16.485043 6.833951 0.949826
O 16.299915 6.687822 14.778699
O 15.523069 7.213600 15.324466
H 13.226043 16.322205 5.045486
H 13.024449 17.359459 4.894682
S 15.051491 5.897438 18.279621
S 14.228921 5.230953 17.994408
N 13.577444 11.297452 5.464584
N 13.059688 11.220247 4.515240
C 5.204293 14.252037 14.468054
C 4.856874 15.148448 14.169351
O 18.096400 8.778710 9.930277
O 18.704971 8.231192 9.197689
H 13.602920 5.954432 14.687329
H 12.611373 6.126504 14.658151
S 15.853515 2.211808 12.632563
S 16.096021 3.161474 13.001244
N 10.780149 11.428412 15.597843
N 10.697810 10.425600 15.464152
C 4.653675 6.287305 7.863855
C 5.203780 7.151326 7.503769
